<?xml version="1.0" encoding="UTF-8"?>

<!-- generated on Mon Jun  7 15:27:46 2021 by Eclipse SUMO duarouter Version 1.8.0
<configuration xmlns:xsi="http://www.w3.org/2001/XMLSchema-instance" xsi:noNamespaceSchemaLocation="http://sumo.dlr.de/xsd/duarouterConfiguration.xsd">

    <input>
        <net-file value="test.net.xml"/>
        <route-files value="trips.trips.xml"/>
    </input>

    <output>
        <output-file value="test.rou.xml"/>
        <alternatives-output value="test.rou.alt.xml"/>
    </output>

</configuration>
-->

<routes>
    <vehicle id="0" depart="0.00" accel="2.6" decel="4.5" sigma="0.5" length="2.5" minGap="2.5" maxSpeed="25">
        <route edges="0/1to1/1 1/1to2/1"/>
    </vehicle>
</routes>
