<?xml version="1.0" encoding="UTF-8"?>
<!-- generated on 2021-06-07 15:17:44.985641 by $Id$ v1_8_0+0044-4820708f3d
  options: -n test.net.xml -e 1 <doubleminus>trip-attributes=departLane="best" departSpeed="max" departPos="random"
-->
<routes xmlns:xsi="http://www.w3.org/2001/XMLSchema-instance" xsi:noNamespaceSchemaLocation="http://sumo.dlr.de/xsd/routes_file.xsd">
    <trip id="0" depart="0.00" from="2/1to1/1" to="1/1to0/1" departLane="best" departSpeed="max" departPos="random"/>
</routes>
