<?xml version="1.0" encoding="UTF-8"?>

<!-- generated on Fri Aug  2 10:07:52 2019 by Eclipse SUMO duarouter Version 1.0.0
<configuration xmlns:xsi="http://www.w3.org/2001/XMLSchema-instance" xsi:noNamespaceSchemaLocation="http://sumo.dlr.de/xsd/duarouterConfiguration.xsd">

    <input>
        <net-file value="erlangen.net.xml"/>
        <route-files value="trips.trips.xml"/>
    </input>

    <output>
        <output-file value="erlangen.net.rou"/>
    </output>

    <time>
        <begin value="0.0"/>
        <end value="3600"/>
    </time>

    <report>
        <no-warnings value="true"/>
        <ignore-errors value="true"/>
        <no-step-log value="true"/>
    </report>

</configuration>
-->

<routes>
    <vehicle id="0" depart="0.10" accel="2.24" decel="4.54" sigma="0.5" length="3.67" minGap="2.58" maxSpeed="10.70">
        <route edges="-31241851#2 31241851#2 -31255203#0 4006702#1"/>
    </vehicle>
    <vehicle id="1" depart="0.10" accel="2.92" decel="4.53" sigma="0.5" length="4.47" minGap="4.72" maxSpeed="11.79">
        <route edges="3998645#0 -4006726#2 -4006726#1 3998643#1 -3998615#1"/>
    </vehicle>
    <vehicle id="2" depart="0.10" accel="2.76" decel="4.76" sigma="0.5" length="4.02" minGap="2.04" maxSpeed="14.2">
        <route edges="23605600#1 -23605600#1 4006674#4 8403001 -4006688#4 10425131"/>
    </vehicle>
    <vehicle id="3" depart="0.10" accel="2.12" decel="4.57" sigma="0.5" length="3.15" minGap="2.64" maxSpeed="13.20">
        <route edges="31241855#0 31241816#0 -31241838#1 -31241838#0 -31255203#1 -31255203#0 -4006702#0 4319352#1 44069041#0 44069041#1 25472079 30405352 30350445 -33174302#1 -33174302#0 -32270595 -4006687 -4006674#4 -4006674#3 4006674#3"/>
    </vehicle>
    <vehicle id="4" depart="0.10" accel="2.4" decel="4.91" sigma="0.5" length="4.61" minGap="3.79" maxSpeed="12.6">
        <route edges="-3013106#0 3013106#0 3013106#1 3013106#2 4319352#1 44069041#0 44069041#1 25472079 30405352 30350445 -33174302#1 -33174302#0 -32270595 8402997 8402998#1 8402998#2 29900564#1 8403007 -23341293"/>
    </vehicle>
    <vehicle id="5" depart="0.10" accel="2.9" decel="4.18" sigma="0.5" length="3.55" minGap="2.56" maxSpeed="8.2">
        <route edges="4006702#0 28613737 94344941 94344940#0 -94344940#0"/>
    </vehicle>
    <vehicle id="6" depart="0.10" accel="2.31" decel="4.75" sigma="0.5" length="3.07" minGap="2.68" maxSpeed="14.8">
        <route edges="3998643#2 30350450#2 4319352#1 44069041#0 44069041#1 25472079 30405352 30350445 -33174302#1 -33174302#0 -29900565#3 -29900565#2 -29900565#1 -29900565#0 -4006690 --5558"/>
    </vehicle>
    <vehicle id="7" depart="0.10" accel="2.11" decel="4.46" sigma="0.5" length="3.12" minGap="2.84" maxSpeed="13.89">
        <route edges="113939242#0 113939244#2 -126606716 23339459 30405358#1 85355912 85355911#0 25472101 30405352 30350445 -33174302#1 33174302#1"/>
    </vehicle>
    <vehicle id="8" depart="0.10" accel="2.65" decel="4.68" sigma="0.5" length="3.37" minGap="2.56" maxSpeed="12.2">
        <route edges="-3998612#2 -3998612#1 -3998612#0 30357194 25472299 30350448 30350449 4047309 30751813 -35842306#1 -35842306#0 -4900741 -4900739#2 4900739#2"/>
    </vehicle>
    <vehicle id="9" depart="0.10" accel="2.21" decel="4.1" sigma="0.5" length="3.09" minGap="2.87" maxSpeed="14.5">
        <route edges="4319352#0 4006702#0 4006702#1 4900043 4900041#1 -23350929"/>
    </vehicle>
    <vehicle id="10" depart="0.10" accel="2.94" decel="4.67" sigma="0.5" length="3.57" minGap="3.83" maxSpeed="14.9">
        <route edges="-23341293 10425128#1 -29900564#3 -29900564#2 -29900564#1 -29900564#0 29900561#0"/>
    </vehicle>
    <vehicle id="11" depart="0.10" accel="2.95" decel="4.56" sigma="0.5" length="4.96" minGap="2.88" maxSpeed="12.9">
        <route edges="4900041#3 4900041#0 -4900043 -4006702#1 -4006702#0 -3013106#2 3998615#0 3998615#1 3998615#2 -4099270#0"/>
    </vehicle>
    <vehicle id="12" depart="0.10" accel="2.58" decel="4.8" sigma="0.5" length="4.84" minGap="2.21" maxSpeed="10.4">
        <route edges="-35842306#1 35842306#1 4047446#0 4047446#1 25472079 30405352 30350445 -33174302#1 -33174302#0 -32270595 8402997 8402998#1 8402998#2 -8402998#2"/>
    </vehicle>
    <vehicle id="13" depart="0.10" accel="2.69" decel="4.62" sigma="0.5" length="3.89" minGap="4.31" maxSpeed="8.8">
        <route edges="-23570844#2 23570844#2 10419402 -4006693#1 -23605595 -8403007 -29900564#1 -8402998#2 -8402998#1 -8402997 32270595 -32302591#5"/>
    </vehicle>
    <vehicle id="14" depart="0.10" accel="2.84" decel="4.09" sigma="0.5" length="3.68" minGap="3.85" maxSpeed="8.7">
        <route edges="10573414#0 4047378 4006724#1 4872369 4006725#1 -3998612#0 3998613#0 3998613#1 3998613#2 -31353573#1 4006673 23605600#0"/>
    </vehicle>
    <vehicle id="15" depart="0.10" accel="2.3" decel="4.87" sigma="0.5" length="3.47" minGap="3.32" maxSpeed="10.5">
        <route edges="-3998613#1 -3998613#0 30357194 25472299 30350448 30350449 4047309 30751813 -35842306#1 -35842306#0"/>
    </vehicle>
    <vehicle id="16" depart="0.10" accel="2.47" decel="4.49" sigma="0.5" length="3.56" minGap="3.57" maxSpeed="9.5">
        <route edges="-37591481 37591481 -113939241 113939241"/>
    </vehicle>
    <vehicle id="17" depart="0.10" accel="2.37" decel="4.11" sigma="0.5" length="3.72" minGap="4.86" maxSpeed="8.2">
        <route edges="-4006683 -32302591#1 -32302591#0 -125685391"/>
    </vehicle>
    <vehicle id="18" depart="0.10" accel="2.16" decel="4.5" sigma="0.5" length="4.92" minGap="4.94" maxSpeed="13.10">
        <route edges="4006702#0 -4006702#0 4319352#1 44069041#0 44069041#1 25472079 30405352 30350445 -33174302#1 -33174302#0 -32270595 8402997 8402998#1 8402998#2 29900564#1 29900564#2 29900564#3 29900564#4"/>
    </vehicle>
    <vehicle id="19" depart="0.10" accel="2.36" decel="4.28" sigma="0.5" length="3.68" minGap="3.48" maxSpeed="14.29">
        <route edges="31241851#2 -31255203#0 -4006702#0 4319352#1 44069041#0 44069041#1 25472079 30405352 30350445 -33174302#1 -33174302#0 -32270595 -29900561#1 -29900561#0 -4006688#4 -4006688#3 -4006688#2 -4006688#1 -4006688#0 -31401017#0 -29900567 -31401018"/>
    </vehicle>
    <vehicle id="20" depart="0.10" accel="2.73" decel="4.75" sigma="0.5" length="4.75" minGap="3.85" maxSpeed="11.6">
        <route edges="94344940#0 -94344940#0 28768072 -28613737 -4006702#0 -3013106#2 -3013106#1 -3013106#0 -10573414#1 4047378 4006724#1 4006724#2"/>
    </vehicle>
    <vehicle id="21" depart="0.10" accel="2.46" decel="4.18" sigma="0.5" length="3.79" minGap="3.99" maxSpeed="10.3">
        <route edges="-31241835#1 -31241816#3 31241851#0 31241851#1 31241851#2 -31255203#0 -4006702#0 4319352#1 44069041#0 44069041#1 25472079 30405352 30350445 -33174302#1 -33174302#0 -29900565#3 -29900565#2 -29900565#1 -29900565#0 -4006690 -4006693#4"/>
    </vehicle>
    <vehicle id="22" depart="0.10" accel="2.8" decel="4.68" sigma="0.5" length="3.58" minGap="2.68" maxSpeed="13.70">
        <route edges="33174302#0 -33174302#0 -32302591#5 -32302591#4 32302591#4"/>
    </vehicle>
    <vehicle id="23" depart="0.10" accel="2.37" decel="4.37" sigma="0.5" length="3.55" minGap="4.88" maxSpeed="11.79">
        <route edges="4900041#2 4900041#3 4900041#0 -4900043 -4006702#1 -4006702#0 4319352#1 44069041#0 44069041#1 25472079 30405352 30350445 -33174302#1 -33174302#0 -32270595 8402997 8402998#1 8402998#2 -8402998#2"/>
    </vehicle>
    <vehicle id="24" depart="0.10" accel="2.01" decel="4.04" sigma="0.5" length="4.76" minGap="3.62" maxSpeed="8.6">
        <route edges="4006693#3 -4006693#3 -4006693#2 -4006693#1 -4006693#0 -31401017#2 31401017#2"/>
    </vehicle>
    <vehicle id="25" depart="0.10" accel="2.88" decel="4.11" sigma="0.5" length="3.24" minGap="3.88" maxSpeed="9.399">
        <route edges="-4006688#3 4006688#3 4006688#4 29900561#0 29900561#1 32270595 33174302#0 33174302#1 4686970#0 4686970#1 122161381 30350448"/>
    </vehicle>
    <vehicle id="26" depart="0.10" accel="2.16" decel="4.87" sigma="0.5" length="3.22" minGap="2.77" maxSpeed="8.9">
        <route edges="4047378 -4047378 10573414#1 3013106#0 3013106#1 3013106#2 4006702#0 4006702#1"/>
    </vehicle>
    <vehicle id="27" depart="0.10" accel="2.87" decel="4.62" sigma="0.5" length="4.17" minGap="4.12" maxSpeed="9.3">
        <route edges="25210699 -4006705#1 4006703#1 28269598 -4006702#2 -4006702#1 -4006702#0 4319352#1 44069041#0 44069041#1 25472079 30405352 19796637 122161381 30350448 30350449"/>
    </vehicle>
    <vehicle id="28" depart="0.10" accel="2.34" decel="4.34" sigma="0.5" length="3.48" minGap="4.89" maxSpeed="11.20">
        <route edges="-23605600#1 4006674#4 4006687 32270595 33174302#0 33174302#1 4686970#0 25472257 -30357194 3998612#0 3998612#1 3998612#2 -3998612#2"/>
    </vehicle>
    <vehicle id="29" depart="0.10" accel="2.34" decel="4.26" sigma="0.5" length="4.24" minGap="2.76" maxSpeed="14.7">
        <route edges="4006684 32302591#3 32302591#4 32302591#5 -32270595 8402997 -8402997"/>
    </vehicle>
    <vehicle id="30" depart="0.10" accel="2.54" decel="4.73" sigma="0.5" length="3.66" minGap="2.62" maxSpeed="13.79">
        <route edges="-31720632#1 -31720632#0 -4006705#2 -4006705#1 4006703#1 28269598 -4006702#2 -4006702#1 -4006702#0 4319352#1 44069041#0 44069041#1 25472079 30405352 30350445 -33174302#1 -33174302#0 -32270595 8402997 8402998#1 8402998#2 29900564#1"/>
    </vehicle>
    <vehicle id="31" depart="0.10" accel="2.71" decel="4.31" sigma="0.5" length="3.56" minGap="4.5" maxSpeed="10.60">
        <route edges="32302591#0 32302591#1 32302591#2 32302591#3 32302591#4 32302591#5 33174302#0 33174302#1 4686970#0 4686970#1 122161381 30350448 8364476 30350450#0 30350450#1 30350450#2 4006702#0 4006702#1 4006702#2 -28269598 -4006703#1 4006705#1 4006705#2 31720632#0"/>
    </vehicle>
    <vehicle id="32" depart="0.10" accel="2.13" decel="4.44" sigma="0.5" length="3.26" minGap="4.41" maxSpeed="8.4">
        <route edges="-4690348 4900739#2 4900741 35842306#0 35842306#1 4047446#0 4047446#1 25472079 30405352 30350445 -33174302#1 -33174302#0 -32270595 8402997 8402998#1 8402998#2 29900564#1 8403007 23605595 4006693#1 -10419402 10419402"/>
    </vehicle>
    <vehicle id="33" depart="0.10" accel="2.91" decel="4.85" sigma="0.5" length="4.81" minGap="3.59" maxSpeed="12.6">
        <route edges="25398494#0 113939244#1 113939244#2 -126606716 23339459 30405358#1 85355912 85355911#0 25472101 30405352 30350445 31353573#0 4006673"/>
    </vehicle>
    <vehicle id="34" depart="0.10" accel="2.92" decel="4.69" sigma="0.5" length="4.43" minGap="3.45" maxSpeed="13.10">
        <route edges="25472299 30350448 8364476 30350450#0 30350450#1 30350450#2 4006702#0 4006702#1 4900043 4900041#1 4900041#2 4900041#3 4900041#0 -4900043"/>
    </vehicle>
    <vehicle id="35" depart="0.10" accel="2.04" decel="4.17" sigma="0.5" length="4.01" minGap="4.75" maxSpeed="8.9">
        <route edges="23605595 -23605595 -8403007 -29900564#1 -8402998#2 -8402998#1 -8402997 32270595 33174302#0 33174302#1 4686970#0 4686970#1 122161381 30350448 8364476 30350450#0 30350450#1 30350450#2 4006702#0 4006702#1 4900043 4900041#1 -23350929"/>
    </vehicle>
    <vehicle id="36" depart="0.10" accel="2.35" decel="4.3" sigma="0.5" length="3.29" minGap="2.35" maxSpeed="11.79">
        <route edges="-25398494#0 -31401017#2 -31401017#1 4006688#0 4006688#1 4006688#2 4006688#3 4006688#4 29900561#0 29900561#1 32270595 -32302591#5 -32302591#4 -32302591#3 -32302591#2 -32302591#1 32302591#1"/>
    </vehicle>
    <vehicle id="37" depart="0.10" accel="2.75" decel="4.64" sigma="0.5" length="3.63" minGap="3.78" maxSpeed="8.100">
        <route edges="85355911#0 85355911#1 30405356 5931612 30350450#0"/>
    </vehicle>
    <vehicle id="38" depart="0.10" accel="2.59" decel="4.52" sigma="0.5" length="4.78" minGap="2.62" maxSpeed="12.6">
        <route edges="-5445204#3 -5445204#2 -5445204#1 113939244#2 -126606716 23339459 30405358#1 85355912 85355911#0 85355911#1 30405356 4047309 30751813 -35842306#1 -35842306#0 -31777493#1 -31777493#0 -31270441"/>
    </vehicle>
    <vehicle id="39" depart="0.10" accel="2.36" decel="4.69" sigma="0.5" length="3.04" minGap="2.39" maxSpeed="12.7">
        <route edges="23805514#1 -4006702#2 -4006702#1 -4006702#0 4319352#1 44069041#0 44069041#1 4400949 31982182#0 4047241 4797872 4797871 4006668 23339459 30405358#1 85355912 85355911#0"/>
    </vehicle>
    <vehicle id="40" depart="0.10" accel="2.18" decel="4.74" sigma="0.5" length="3.99" minGap="3.97" maxSpeed="9.9">
        <route edges="4006668 23339459 30405358#1 85355912 85355911#0 85355911#1 30405356 5931612 30350450#0 30350450#1 30350450#2 4006702#0 28613737 94344941 28768072"/>
    </vehicle>
    <vehicle id="41" depart="0.10" accel="2.72" decel="4.21" sigma="0.5" length="4.68" minGap="3.53" maxSpeed="14.1">
        <route edges="4006724#2 -3998612#1 -3998612#0 30357194 25472299 30350448 30350449 4047309 30751813 -35842306#1 -35842306#0"/>
    </vehicle>
    <vehicle id="42" depart="0.10" accel="2.58" decel="4.22" sigma="0.5" length="4.14" minGap="4.7" maxSpeed="11.29">
        <route edges="25472129 31982182#0 4047241 4797872 4797871 4006668 126606716 113939242#0 5445204#1 5445204#2"/>
    </vehicle>
    <vehicle id="43" depart="0.10" accel="2.97" decel="4.39" sigma="0.5" length="3.27" minGap="2.78" maxSpeed="11.5">
        <route edges="3013106#2 4319352#1 44069041#0 44069041#1 4400949 31982182#0 4047241 4797872 4797871 4006668 126606716 113939242#0 113939242#1 113939242#2 113939241"/>
    </vehicle>
    <vehicle id="44" depart="0.10" accel="2.36" decel="4.08" sigma="0.5" length="3.32" minGap="2.5" maxSpeed="8.5">
        <route edges="-4006674#0 4006674#0 4006674#1 4006674#2 4006674#3 4006674#4 8403001 29900564#0 29900564#1"/>
    </vehicle>
    <vehicle id="45" depart="0.10" accel="2.15" decel="4.41" sigma="0.5" length="3.55" minGap="4.35" maxSpeed="8.299">
        <route edges="5445204#2 5445204#3 23570844#2 10419402 4006693#2 10425128#0 -10425128#0"/>
    </vehicle>
    <vehicle id="46" depart="0.10" accel="2.97" decel="4.72" sigma="0.5" length="4.3" minGap="4.76" maxSpeed="14.7">
        <route edges="4006674#2 4006674#3 4006674#4 4006687 32270595 33174302#0 4006689"/>
    </vehicle>
    <vehicle id="47" depart="0.10" accel="2.46" decel="4.03" sigma="0.5" length="3.58" minGap="3.27" maxSpeed="9.399">
        <route edges="4047446#0 4047446#1 25472079 30405352 19796637 122161390 -30357194 3998613#0"/>
    </vehicle>
    <vehicle id="48" depart="0.10" accel="2.31" decel="4.85" sigma="0.5" length="4.62" minGap="4.47" maxSpeed="13.60">
        <route edges="4006688#3 4006688#4 29900561#0 29900561#1 32270595 33174302#0 33174302#1 4686970#0 25472257 25472299"/>
    </vehicle>
    <vehicle id="49" depart="0.10" accel="2.52" decel="4.82" sigma="0.5" length="3.96" minGap="3.82" maxSpeed="11.6">
        <route edges="29900565#0 4006691 -29900564#2 8403007 23605595 -4006693#0 -31401017#2 -8402998#3"/>
    </vehicle>
    <vehicle id="50" depart="0.10" accel="2.35" decel="4.49" sigma="0.5" length="4.36" minGap="4.29" maxSpeed="13.10">
        <route edges="-28613737 -4006702#0 -3013106#2 3998615#0 4006726#0 4006726#1 4006726#2"/>
    </vehicle>
    <vehicle id="51" depart="0.10" accel="2.64" decel="4.96" sigma="0.5" length="4.98" minGap="4.98" maxSpeed="10.8">
        <route edges="29900567 -29900567 -23605600#2 4006675 -32270592#0 -32270593"/>
    </vehicle>
    <vehicle id="52" depart="0.10" accel="2.84" decel="4.01" sigma="0.5" length="3.26" minGap="2.21" maxSpeed="12.0">
        <route edges="25210699 -4006705#1 4006703#1 28269598 -4006702#2 -4006702#1 -4006702#0 4319352#1 44069041#0 44069041#1 4400949 31982182#0 4047241 4797872 4797871 4006668 23339459"/>
    </vehicle>
    <vehicle id="53" depart="0.10" accel="2.21" decel="4.24" sigma="0.5" length="3.08" minGap="3.02" maxSpeed="14.39">
        <route edges="-4006740 -3998613#1 -3998613#0 3998612#0 3998612#1 3998612#2 3013106#0 3013106#1 3013106#2 4006702#0 4006702#1 4006702#2 -28269598 -4006703#1"/>
    </vehicle>
    <vehicle id="54" depart="0.10" accel="2.23" decel="4.44" sigma="0.5" length="3.67" minGap="4.62" maxSpeed="14.2">
        <route edges="28768072 -28613737 31255203#0 -31241851#2 -31241851#1 -31241851#0 31241816#3 31241835#1"/>
    </vehicle>
    <vehicle id="55" depart="0.10" accel="2.69" decel="4.49" sigma="0.5" length="4.26" minGap="3.2" maxSpeed="11.89">
        <route edges="30751813 4047446#0 25472129 31982182#0 4047241 4797872 4797871 4006668 126606716 113939242#0 113939242#1 113939242#2 113939241"/>
    </vehicle>
    <vehicle id="56" depart="0.10" accel="2.49" decel="4.97" sigma="0.5" length="3.27" minGap="3.33" maxSpeed="9.8">
        <route edges="-23570844#2 23570844#2 10419402 -4006693#1 -23605595 -8403007 -29900564#1 -8402998#2 -8402998#1 -8402997 32270595 33174302#0 33174302#1 -33174302#1"/>
    </vehicle>
    <vehicle id="57" depart="0.10" accel="2.49" decel="4.19" sigma="0.5" length="4.87" minGap="3.4" maxSpeed="12.3">
        <route edges="-31777493#0 31777493#0 31777493#1 35842306#0 35842306#1 4047446#0 4047446#1 25472079 30405352 30350445"/>
    </vehicle>
    <vehicle id="58" depart="0.10" accel="2.71" decel="4.95" sigma="0.5" length="4.56" minGap="2.44" maxSpeed="12.7">
        <route edges="4006724#2 -3998612#1 -3998612#0 3998613#0 3998613#1 3998613#2 -31353573#1 4006673 -32302591#4 -32302591#3 -32302591#2 -32302591#1 4006682"/>
    </vehicle>
    <vehicle id="59" depart="0.10" accel="2.53" decel="4.62" sigma="0.5" length="3.75" minGap="3.35" maxSpeed="11.39">
        <route edges="4006684 32302591#3 32302591#4 32302591#5 -32270595 -29900561#1 -29900561#0 -4006688#4 4006688#4"/>
    </vehicle>
    <vehicle id="60" depart="0.10" accel="2.58" decel="4.52" sigma="0.5" length="3.09" minGap="2.86" maxSpeed="13.70">
        <route edges="-3998645#0 3998612#1 3998612#2 3013106#0 3013106#1 3013106#2 4006702#0 4006702#1 4006702#2 4006701"/>
    </vehicle>
    <vehicle id="61" depart="0.10" accel="2.45" decel="4.45" sigma="0.5" length="3.96" minGap="2.29" maxSpeed="8.2">
        <route edges="31401017#1 31401017#2 4006693#0 -23605595 -8403007 -29900564#1"/>
    </vehicle>
    <vehicle id="62" depart="0.10" accel="2.12" decel="4.09" sigma="0.5" length="3.97" minGap="3.27" maxSpeed="10.5">
        <route edges="-10712011 4006688#1 4006688#2 4006688#3 4006688#4 29900561#0 29900561#1 32270595 33174302#0 33174302#1 4686970#0 25472257 -30357194 3998612#0 3998612#1 3998612#2 -10573414#1"/>
    </vehicle>
    <vehicle id="63" depart="0.10" accel="2.11" decel="4.47" sigma="0.5" length="4.27" minGap="3.99" maxSpeed="13.3">
        <route edges="3998643#0 -3998643#0 -3998612#1 -3998612#0 3998613#0 3998613#1 3998613#2 -3998613#2"/>
    </vehicle>
    <vehicle id="64" depart="0.10" accel="2.65" decel="4.21" sigma="0.5" length="4.46" minGap="2.16" maxSpeed="14.7">
        <route edges="-31241816#1 -31241838#1 -31241838#0 31241838#0"/>
    </vehicle>
    <vehicle id="65" depart="0.10" accel="2.59" decel="4.14" sigma="0.5" length="4.83" minGap="4.41" maxSpeed="9.200">
        <route edges="-4006724#2 -4006724#1 -4047378 10573414#1 3013106#0 3013106#1 3013106#2 4006702#0 28613737 94344941 94344940#0 -28613727#1"/>
    </vehicle>
    <vehicle id="66" depart="0.10" accel="2.29" decel="4.51" sigma="0.5" length="3.77" minGap="4.98" maxSpeed="12.0">
        <route edges="-31353573#1 -31353573#0 4686970#0 4686970#1 122161381 30350448 30350449 4400949 31982182#0 4047241 4797872 4797871 4006668 126606716 113939242#0 113939242#1 113939242#2 113939241 -37591481 -28269601 28269601"/>
    </vehicle>
    <vehicle id="67" depart="0.10" accel="2.55" decel="4.47" sigma="0.5" length="3.1" minGap="2.08" maxSpeed="11.29">
        <route edges="-31401018 31401018 29900567 31401017#0 4006688#0 4006688#1 4006688#2 4006688#3 4006688#4 29900561#0 29900561#1 32270595 33174302#0 33174302#1 4686970#0 4686970#1 122161381 30350448 8364476 30350450#0 -3998645#2 -3998645#1"/>
    </vehicle>
    <vehicle id="68" depart="0.10" accel="2.99" decel="4.02" sigma="0.5" length="3.39" minGap="3.87" maxSpeed="10.70">
        <route edges="32302591#3 32302591#4 32302591#5 -32270595 -29900561#1 -29900561#0 -4006688#4 -4006688#3 -4006688#2 -4006688#1 10712011"/>
    </vehicle>
    <vehicle id="69" depart="0.10" accel="2.82" decel="4.85" sigma="0.5" length="3.5" minGap="2.37" maxSpeed="14.0">
        <route edges="-4006693#3 -4006693#2 -4006693#1 -4006693#0 25398494#0 113939244#1 113939244#2"/>
    </vehicle>
    <vehicle id="70" depart="0.10" accel="2.37" decel="4.12" sigma="0.5" length="3.75" minGap="4.77" maxSpeed="12.0">
        <route edges="-126606716 23339459 30405358#1 85355912 85355911#0 25472101 30405352 30350445 31353573#0 31353573#1 -41973977"/>
    </vehicle>
    <vehicle id="71" depart="0.10" accel="2.18" decel="4.1" sigma="0.5" length="4.91" minGap="2.78" maxSpeed="10.4">
        <route edges="-94344940#2 -94344940#0 28768072 -28613737 4006702#1 4006702#2 -28269598 -4006703#1 4006705#1 4006705#2 31720632#0 -31720632#0"/>
    </vehicle>
    <vehicle id="72" depart="0.10" accel="2.79" decel="4.61" sigma="0.5" length="4.84" minGap="2.19" maxSpeed="11.5">
        <route edges="-31241816#0 31241816#0 -31241838#1 -31241838#0 -31255203#1 -31255203#0 -4006702#0 4319353 4319349"/>
    </vehicle>
    <vehicle id="73" depart="0.10" accel="2.68" decel="4.24" sigma="0.5" length="4.06" minGap="3.58" maxSpeed="11.7">
        <route edges="25472079 30405352 30350445 -33174302#1 -33174302#0 -32302591#5 -32302591#4 -32302591#3 -32302591#2 -32302591#1 -32302591#0"/>
    </vehicle>
    <vehicle id="74" depart="0.10" accel="2.8" decel="4.81" sigma="0.5" length="4.31" minGap="3.25" maxSpeed="9.6">
        <route edges="30405358#0 30405358#1 85355912 85355911#0 25472101 30405352 30350445 -33174302#1 -33174302#0 -32270595 -29900561#1 -29900561#0 -4006688#4 4006688#4"/>
    </vehicle>
    <vehicle id="75" depart="0.10" accel="2.3" decel="4.33" sigma="0.5" length="4.3" minGap="3.92" maxSpeed="10.70">
        <route edges="-113939241"/>
    </vehicle>
    <vehicle id="76" depart="0.10" accel="2.81" decel="4.32" sigma="0.5" length="3.95" minGap="2.03" maxSpeed="9.8">
        <route edges="-31255203#0 -4006702#0 4319352#1 44069041#0 44069041#1 25472079 30405352 30350445 -33174302#1 -33174302#0 33174302#0"/>
    </vehicle>
    <vehicle id="77" depart="0.10" accel="2.69" decel="4.92" sigma="0.5" length="3.42" minGap="2.32" maxSpeed="10.4">
        <route edges="-31401017#0 31401017#0 4006688#0 4006688#1 4006688#2 4006688#3 4006688#4 29900561#0 29900561#1 32270595 -32302591#5 -32302591#4 -32302591#3 -32302591#2 32302591#2"/>
    </vehicle>
    <vehicle id="78" depart="0.10" accel="2.85" decel="4.53" sigma="0.5" length="4.28" minGap="4.19" maxSpeed="12.3">
        <route edges="31720632#0 -31720632#0 -4006705#2 -4006705#1 4006703#1 28269598 -4006702#2 -4006702#1 -4006702#0 4319352#1 44069041#0 44069041#1 25472079 30405352 30350445 -33174302#1 -33174302#0 -32270595 -29900561#1 29900561#1"/>
    </vehicle>
    <vehicle id="79" depart="0.10" accel="2.71" decel="4.7" sigma="0.5" length="3.42" minGap="4.11" maxSpeed="10.8">
        <route edges="-39539626 -5445204#2 -5445204#1 113939242#1 -25398494#0 4006693#0 -23605595 -8403007 -29900564#1 8402998#3"/>
    </vehicle>
    <vehicle id="80" depart="0.10" accel="2.49" decel="4.27" sigma="0.5" length="3.76" minGap="2.59" maxSpeed="13.3">
        <route edges="4006684 32302591#3 32302591#4 32302591#5 33174302#0 33174302#1 4686970#0 25472257"/>
    </vehicle>
    <vehicle id="81" depart="0.10" accel="2.74" decel="4.37" sigma="0.5" length="4.01" minGap="3.85" maxSpeed="9.3">
        <route edges="-3998612#0 3998612#0 3998612#1 3998612#2 3013106#0 3013106#1 3013106#2 4006702#0 31255203#0 -31241851#2 -31241853#2 31241838#1 -31241816#0 31241855#1"/>
    </vehicle>
    <vehicle id="82" depart="0.10" accel="2.77" decel="4.28" sigma="0.5" length="3.94" minGap="3.41" maxSpeed="12.8">
        <route edges="-5558 4006690 29900565#0 29900565#1 29900565#2 29900565#3 33174302#0 33174302#1 4686970#0 4686970#1 122161381 30350448 8364476 30350450#0 30350450#1 30350450#2 -3013106#2 -3013106#1 3013106#1"/>
    </vehicle>
    <vehicle id="83" depart="0.10" accel="2.54" decel="4.47" sigma="0.5" length="3.46" minGap="2.03" maxSpeed="11.39">
        <route edges="-4006693#3 4006693#3 4006693#4 4006690 29900565#0 29900565#1 29900565#2 29900565#3 33174302#0 33174302#1 4686970#0 4686970#1 122161381 30350448 8364476 30350450#0 30350450#1 30350450#2 4006702#0 31255203#0 -31241851#2 -31241851#1 -31241851#0 -31241848 31241848"/>
    </vehicle>
    <vehicle id="84" depart="0.10" accel="2.04" decel="4.2" sigma="0.5" length="3.87" minGap="4.45" maxSpeed="11.89">
        <route edges="-28631632 28613727#1 -94344940#0 28768072 -28613737 -4006702#0 4319352#1 44069041#0 44069041#1 25472079 30405352 30350445 -33174302#1 -33174302#0 -32270595 -4006687 -4006674#4 -4006674#3 -4006674#2 -4006683"/>
    </vehicle>
    <vehicle id="85" depart="0.10" accel="2.97" decel="4.81" sigma="0.5" length="3.42" minGap="3.63" maxSpeed="8.7">
        <route edges="8402997 -8402997 32270595 33174302#0 33174302#1 4686970#0 4686970#1 122161381 30350448 30350449 4400949 31982182#0 4047241"/>
    </vehicle>
    <vehicle id="86" depart="0.10" accel="2.42" decel="4.89" sigma="0.5" length="4.96" minGap="4.48" maxSpeed="14.2">
        <route edges="-4006688#4 4006688#4 29900561#0 29900561#1 32270595 33174302#0 33174302#1 4686970#0 25472257 -30357194 3998612#0 -4006725#1 -4872369 -4006724#1 4006724#1"/>
    </vehicle>
    <vehicle id="87" depart="0.10" accel="2.58" decel="4.26" sigma="0.5" length="3.72" minGap="3.69" maxSpeed="13.0">
        <route edges="-4006691 29900565#1 29900565#2 29900565#3 33174302#0 33174302#1 4686970#0 4686970#1 122161381 30350448 8364476 30350450#0 30350450#1 30350450#2 4006702#0 4006702#1 4900043 4900041#1 4900041#2 4900041#3"/>
    </vehicle>
    <vehicle id="88" depart="0.10" accel="2.54" decel="4.31" sigma="0.5" length="4.76" minGap="4.02" maxSpeed="13.3">
        <route edges="3998613#2 -31353573#1 -31353573#0 -33174302#1 -33174302#0 -32270595 8402997 -8402997"/>
    </vehicle>
    <vehicle id="89" depart="0.10" accel="2.08" decel="4.2" sigma="0.5" length="3.88" minGap="4.42" maxSpeed="11.7">
        <route edges="-3998643#2 3998643#2 30350450#2 4319352#1 44069041#0 44069041#1 25472079 30405352 30350445 -33174302#1 -33174302#0 -32270595 8402997 8402998#1 8402998#2 29900564#1 29900564#2 29900564#3 -10425128#1"/>
    </vehicle>
    <vehicle id="90" depart="0.10" accel="2.57" decel="4.11" sigma="0.5" length="4.52" minGap="4.89" maxSpeed="11.89">
        <route edges="4047309 30751813 4047446#0 25472129 31982182#0 4047241 4797872 4797871 4006668 126606716 113939242#0 5445204#1 5445204#2 5445204#3 -23570844#1"/>
    </vehicle>
    
    <vehicle id="91" depart="0.10" accel="2.8" decel="4.16" sigma="0.5" length="4.46" minGap="3.53" maxSpeed="14.6">
        <route edges="4006691 -29900564#2 -29900564#1 -8402998#2 -8402998#1 -8402997 32270595 33174302#0 33174302#1 4686970#0 4686970#1 122161381 30350448 8364476"/>
    </vehicle>
    <vehicle id="92" depart="0.10" accel="2.09" decel="4.64" sigma="0.5" length="4.71" minGap="4.68" maxSpeed="12.0">
        <route edges="29900567 31401017#0 4006688#0 4006688#1 4006688#2 4006688#3 4006688#4 29900561#0 29900561#1 32270595 33174302#0 33174302#1 4686970#0 4686970#1 122161381 30350448 30350449 4047309 30751813 -35842306#1 -35842306#0 -31777493#1 -31777493#0 -31270441"/>
    </vehicle>
    <vehicle id="93" depart="0.10" accel="2.67" decel="4.96" sigma="0.5" length="3.85" minGap="4.02" maxSpeed="13.0">
        <route edges="4006726#0 -3998643#0 -3998612#1 -3998612#0 3998613#0 3998613#1 3998613#2 -31353573#1 -31353573#0 -33174302#1 -33174302#0 -32270595 8402997 8402998#1 8402998#2 8402998#3"/>
    </vehicle>
    <vehicle id="94" depart="0.10" accel="2.14" decel="4.32" sigma="0.5" length="3.32" minGap="2.74" maxSpeed="13.20">
        <route edges="32302591#0 32302591#1 32302591#2 32302591#3 32302591#4 32302591#5 33174302#0 33174302#1 4686970#0 4686970#1 122161381 30350448 30350449 4400949 31982182#0 4047241 4797872 4797871 4006668 23339459 30405358#1 85355912 85355911#0 25472101"/>
    </vehicle>
    <vehicle id="95" depart="0.10" accel="2.63" decel="4.97" sigma="0.5" length="4.35" minGap="4.58" maxSpeed="14.29">
        <route edges="-4900043 4006702#2 -28269598 -4006703#1 -4006705#0"/>
    </vehicle>
    <vehicle id="96" depart="0.10" accel="2.92" decel="4.54" sigma="0.5" length="3.77" minGap="4.02" maxSpeed="8.7">
        <route edges="-32302591#5 32302591#5 33174302#0 33174302#1 4686970#0 4686970#1 122161381 30350448 8364476 30350450#0 30350450#1 30350450#2 4006702#0 4006702#1 4006702#2 -28269598 -4006703#1 4006705#1 4006705#2 31720632#0"/>
    </vehicle>
    <vehicle id="97" depart="0.10" accel="2.43" decel="4.15" sigma="0.5" length="4.76" minGap="2.56" maxSpeed="13.89">
        <route edges="10425128#1 -29900564#3 -29900564#2 -29900564#1 -29900564#0 -8403001 -4006674#4 -4006674#3 -4006674#2 -4006674#1 -4006674#0 32270593 32270592#0 -32270592#0"/>
    </vehicle>
    <vehicle id="98" depart="0.10" accel="2.91" decel="4.58" sigma="0.5" length="3.47" minGap="4.9" maxSpeed="8.299">
        <route edges="-30357194 3998613#0 3998613#1 3998613#2 -31353573#1 -31353573#0 -33174302#1 -33174302#0 -32270595 -29900561#1 -29900561#0 -4006688#4 -4006688#3 -4006688#2 -4006688#1 -4006688#0 31401017#1"/>
    </vehicle>
    <vehicle id="99" depart="0.10" accel="2.1" decel="4.25" sigma="0.5" length="4.9" minGap="3.52" maxSpeed="12.6">
        <route edges="-4006688#0 -31401017#0 -29900567 -23605600#2 23605600#2"/>
    </vehicle>
    
    <vehicle id="100" depart="0.10" accel="2.76" decel="4.4" sigma="0.5" length="4.37" minGap="3.02" maxSpeed="13.0">
        <route edges="-4006701 -4006702#2 -4006702#1 -4006702#0 -3013106#2 3998615#0 4006726#0 4006726#1 4006726#2"/>
    </vehicle>
