<?xml version="1.0"?>

<routes>
   <vType id="vtype0" accel="2.6" decel="4.5" sigma="0.5" length="2.5" minGap="2.5" maxSpeed="14" color="1,1,0"/>
   <route id="route0" edges="-39539626 -5445204#2 -5445204#1 113939244#2 -126606716 23339459 30405358#1 85355912 85355911#0 85355911#1 30405356 5931612 30350450#0 30350450#1 30350450#2 4006702#0 4006702#1 4900043 4900041#1"/>
   <flow id="flow0" type="vtype0" route="route0" begin="0" period="15" number="10000"/>
   

<vType id="vtype1" accel="2.6" decel="4.5" sigma="0.5" length="2.5" minGap="2.5" maxSpeed="14" color="1,1,0"/>
<route id="route1" edges="-4006683 32302591#2 32302591#3 32302591#4 32302591#5 33174302#0 33174302#1 4686970#0 4686970#1 122161381 30350448 30350449 4047309 30751813 -35842306#1 -35842306#0 -4900741 -4900739#2 4900739#2"/>
<flow id="flow1" type="vtype1" route="route1" begin="0" period="30" number="10000"/>



<vType id="vtype2" accel="2.6" decel="4.5" sigma="0.5" length="2.5" minGap="2.5" maxSpeed="14" color="1,1,0"/>
<route id="route2" edges="4686970#1 122161381 30350448 30350449 25472079 30405352 30350445 -33174302#1 -33174302#0 -32270595 -29900561#1 -29900561#0 -4006688#4 -4006688#3 -4006688#2 -4006688#1 10712011"/>
<flow id="flow2" type="vtype2" route="route2" begin="0" period="30" number="10000"/>

<vType id="vtype3" accel="2.6" decel="4.5" sigma="0.5" length="2.5" minGap="2.5" maxSpeed="14" color="1,1,0"/>
<route id="route3" edges="5445204#3 23570844#2 10419402 -4006693#1 -4006693#0 -31401017#2 -31401017#1 -31401017#0 -29900567 -23605600#2 4006675"/>
<flow id="flow3" type="vtype3" route="route3" begin="0" period="20" number="10000"/>


<vType id="vtype4" accel="2.6" decel="4.5" sigma="0.5" length="2.5" minGap="2.5" maxSpeed="14" color="1,1,0"/>
<route id="route4" edges="4006703#1 28269598 -4006702#2 -4006702#1 28613737"/>
<flow id="flow4" type="vtype4" route="route4" begin="0" period="15" number="10000"/>


<vType id="vtype5" accel="2.6" decel="4.5" sigma="0.5" length="2.5" minGap="2.5" maxSpeed="14" color="1,1,0"/>
<route id="route5" edges="-4006693#2 -4006693#1 -23605595 -8403007 -29900564#1 -8402998#2 -8402998#1 -8402997 32270595 33174302#0 33174302#1 4686970#0 4686970#1 122161381 30350448 8364476 30350450#0 -3998645#2 -3998645#1 -4006726#2 4006726#2"/>
<flow id="flow5" type="vtype5" route="route5" begin="0" period="50" number="100"/>

<vType id="vtype6" accel="2.6" decel="4.5" sigma="0.5" length="2.5" minGap="2.5" maxSpeed="14" color="1,1,0"/>
<route id="route6" edges="4006682 -4006682 32302591#1 32302591#2 32302591#3 32302591#4 32302591#5 33174302#0 33174302#1 4686970#0 4686970#1 122161381 30350448 8364476 30350450#0 30350450#1 30350450#2 4319353 4319349"/>
<flow id="flow6" type="vtype6" route="route6" begin="0" period="45" number="100"/>


<vType id="vtype7" accel="2.6" decel="4.5" sigma="0.5" length="2.5" minGap="2.5" maxSpeed="14" color="1,1,0"/>
<route id="route7" edges="30350450#1 30350450#2 4319352#1 44069041#0 44069041#1 25472079 30405352 19796637 122161390 -30357194"/>
<flow id="flow7" type="vtype7" route="route7" begin="0" period="30" number="10000"/>


<vType id="vtype8" accel="2.6" decel="4.5" sigma="0.5" length="2.5" minGap="2.5" maxSpeed="14" color="1,1,0"/>
<route id="route8" edges="-32302591#0 32302591#0 32302591#1 32302591#2 32302591#3 32302591#4 32302591#5 33174302#0 33174302#1 31353573#0 31353573#1"/>
<flow id="flow8" type="vtype8" route="route8" begin="0" period="10" number="10000"/>

<vType id="vtype9" accel="2.6" decel="4.5" sigma="0.5" length="2.5" minGap="2.5" maxSpeed="14" color="1,1,0"/>
<route id="route9" edges="30405358#0 30405358#1 85355912 85355911#0 85355911#1 30405356 5931612 30350450#0 30350450#1 30350450#2 4006702#0 31255203#0 -31241851#2 -31241851#1 -31241851#0 31241816#3 -31241835#0"/>
<flow id="flow9" type="vtype9" route="route9" begin="0" period="20" number="10000"/>

<vType id="vtype10" accel="2.6" decel="4.5" sigma="0.5" length="2.5" minGap="2.5" maxSpeed="14" color="1,1,0"/>
<route id="route10" edges="31401017#0 31401017#1 31401017#2 25398494#0 113939244#1 113939244#2 -126606716 -4006668 -15259223"/>
<flow id="flow10" type="vtype10" route="route10" begin="0" period="20" number="10000"/>

<vType id="vtype11" accel="2.6" decel="4.5" sigma="0.5" length="2.5" minGap="2.5" maxSpeed="14" color="1,1,0"/>
<route id="route11" edges="3998612#0 -3998612#0 3998613#0 3998613#1 3998613#2 -31353573#1 4006673 -32302591#4 -32302591#3 -32302591#2 -32302591#1 -32302591#0 "/>
<flow id="flow11" type="vtype11" route="route11" begin="0" period="20" number="10000"/>


<vType id="vtype12" accel="2.6" decel="4.5" sigma="0.5" length="2.5" minGap="2.5" maxSpeed="14" color="1,1,0"/>
<route id="route12" edges="10425130 4006688#4 29900561#0 29900561#1 32270595 33174302#0 33174302#1 4686970#0 4686970#1 122161381 30350448 8364476 30350450#0 30350450#1 30350450#2 4006702#0 28613737 94344941 94344940#0 -28613727#1 -28613727#0"/>
<flow id="flow12" type="vtype12" route="route12" begin="0" period="40" number="10000"/>


<vType id="vtype13" accel="2.6" decel="4.5" sigma="0.5" length="2.5" minGap="2.5" maxSpeed="14" color="1,1,0"/>
<route id="route13" edges="3013107 -3013106#0 3013106#0"/>
<flow id="flow13" type="vtype13" route="route13" begin="0" period="15" number="10000"/>


<vType id="vtype14" accel="2.6" decel="4.5" sigma="0.5" length="2.5" minGap="2.5" maxSpeed="14" color="1,1,0"/>
<route id="route14"  edges="4047316 -31270441 31777493#1 -4900741 -4900739#2 4690348"/>
<flow id="flow14" type="vtype14" route="route14" begin="0" period="15" number="10000"/>

<vType id="vtype15" accel="2.6" decel="4.5" sigma="0.5" length="2.5" minGap="2.5" maxSpeed="14" color="1,1,0"/>
<route id="route15"  edges="113939242#2 113939244#0 -25398494#0 4006693#0 -23605595 -8403007 29900564#2 -4006691"/>
<flow id="flow15" type="vtype15" route="route15" begin="0" period="15" number="10000"/>

<vType id="vtype16" accel="2.6" decel="4.5" sigma="0.5" length="2.5" minGap="2.5" maxSpeed="14" color="1,1,0"/>
<route id="route16" edges="-4006724#2 4006724#2 3998643#0 3998643#1 3998643#2 30350450#2"/>
<flow id="flow16" type="vtype16" route="route16" begin="0" period="10" number="10000"/>

<vType id="vtype17" accel="2.6" decel="4.5" sigma="0.5" length="2.5" minGap="2.5" maxSpeed="14" color="1,1,0"/>
<route id="route17"  edges="-4006674#3 4006674#3 4006674#4 8403001 29900564#0 29900564#1 29900564#2 29900564#3 29900564#4"/>
<flow id="flow17" type="vtype17" route="route17" begin="0" period="15" number="10000"/>

<vType id="vtype18" accel="2.6" decel="4.5" sigma="0.5" length="2.5" minGap="2.5" maxSpeed="14" color="1,1,0"/>
<route id="route18" edges="54105725 -94344940#2 -94344940#0 28768072 -28613737 4006702#1 "/>
<flow id="flow18" type="vtype18" route="route18" begin="0" period="40" number="10000"/>


<vType id="vtype19" accel="2.6" decel="4.5" sigma="0.5" length="2.5" minGap="2.5" maxSpeed="14" color="1,1,0"/>
<route id="route19" edges="-67076129 -94344940#0 28768072 -28613737 4006702#1 4006702#2 -23805514#1 -32611578"/>
<flow id="flow19" type="vtype19" route="route19" begin="0" period="25" number="1000"/>

<vType id="vtype20" accel="2.6" decel="4.5" sigma="0.5" length="2.5" minGap="2.5" maxSpeed="14" color="1,1,0"/>
<route id="route20" edges="-8402998#3 -29900564#0 -8403001 -4006674#4 -4006674#3 4006684"/>
<flow id="flow20" type="vtype20" route="route20" begin="0" period="20" number="10000"/>

<vType id="vtype21" accel="2.6" decel="4.5" sigma="0.5" length="2.5" minGap="2.5" maxSpeed="14" color="1,1,0"/>
<route id="route21" edges="10573414#1 3013106#0 3013106#1 3013106#2 4006702#0 4006702#1"/>
<flow id="flow21" type="vtype21" route="route21" begin="0" period="15" number="1000"/>

<vType id="vtype22" accel="2.6" decel="4.5" sigma="0.5" length="2.5" minGap="2.5" maxSpeed="14" color="1,1,0"/>
<route id="route22" edges="4400949 31982182#0 4047241 4797872 4797871 4006668 126606716 113939242#0 113939242#1 113939242#2 113939241"/>
<flow id="flow22" type="vtype22" route="route22" begin="0" period="10" number="10000"/>

<vType id="vtype23" accel="2.6" decel="4.5" sigma="0.5" length="2.5" minGap="2.5" maxSpeed="14" color="1,1,0"/>
<route id="route23" edges="-4006672 32302591#0 32302591#1 32302591#2 32302591#3 32302591#4 32302591#5 -29900565#3 -29900565#2 -29900565#1 -29900565#0 -4006690 -4006693#4"/>
<flow id="flow23" type="vtype23" route="route23" begin="0" period="15" number="10000"/>

<vType id="vtype24" accel="2.6" decel="4.5" sigma="0.5" length="2.5" minGap="2.5" maxSpeed="14" color="1,1,0"/>
<route id="route24"  edges="-4006702#2 -4006702#1 -4006702#0 4319352#1 44069041#0 44069041#1 25472079 30405352"/>
<flow id="flow24" type="vtype24" route="route24" begin="0" period="30" number="10000"/>

<vType id="vtype25" accel="2.6" decel="4.5" sigma="0.5" length="2.5" minGap="2.5" maxSpeed="14" color="1,1,0"/>
<route id="route25"  edges="4006690 29900565#0 29900565#1 29900565#2 29900565#3 33174302#0 33174302#1 4686970#0 4686970#1 122161381 30350448 8364476"/>
<flow id="flow25" type="vtype25" route="route25" begin="0" period="18" number="10000"/>

<vType id="vtype26" accel="2.6" decel="4.5" sigma="0.5" length="2.5" minGap="2.5" maxSpeed="14" color="1,1,0"/>
<route id="route26" edges="-113939241 113939244#0 113939244#1 113939244#2 -126606716 23339459 30405358#1 85355912 85355911#0"/>
<flow id="flow26" type="vtype26" route="route26" begin="0" period="15" number="1000"/>

<vType id="vtype27" accel="2.6" decel="4.5" sigma="0.5" length="2.5" minGap="2.5" maxSpeed="14" color="1,1,0"/>
<route id="route27" edges="25472257 -30357194 3998612#0 -4006725#1 -4872369"/>
<flow id="flow27" type="vtype27" route="route27" begin="0" period="10" number="1000"/>

<vType id="vtype28" accel="2.6" decel="4.5" sigma="0.5" length="2.5" minGap="2.5" maxSpeed="14" color="1,1,0"/>
<route id="route28" edges="-4006702#0 4319352#1 44069041#0 44069041#1 4400949 31982182#0 4047241 4797872 4797871 4006668 126606716 113939242#0"/>
<flow id="flow28" type="vtype28" route="route28" begin="0" period="20" number="1000"/>

<vType id="vtype29" accel="2.6" decel="4.5" sigma="0.5" length="2.5" minGap="2.5" maxSpeed="14" color="1,1,0"/>
<route id="route29" edges="4006690 29900565#0 29900565#1 29900565#2 8402998#0 -8402997 -29900561#1"/>
<flow id="flow29" type="vtype21" route="route21" begin="0" period="15" number="10000"/>

<vType id="vtype30" accel="2.6" decel="4.5" sigma="0.5" length="2.5" minGap="2.5" maxSpeed="14" color="1,1,0"/>
<route id="route30" edges="30357194 25472299 30350448 30350449 4400949 31982182#0 4047241 4797872 4797871 4006668 126606716 113939242#0 113939242#1 113939242#2 113939241 -37591481 37591481"/>
<flow id="flow30" type="vtype30" route="route30" begin="0" period="15" number="10000"/>


<vType id="vtype31" accel="2.6" decel="4.5" sigma="0.5" length="2.5" minGap="2.5" maxSpeed="14" color="1,1,0"/>
<route id="route31" edges="-4006725#1 4006725#1 -3998612#0 3998612#0"/>
<flow id="flow31" type="vtype31" route="route31" begin="0" period="20" number="10000"/>

<vType id="vtype32" accel="2.6" decel="4.5" sigma="0.5" length="2.5" minGap="2.5" maxSpeed="14" color="1,1,0"/>
<route id="route32" edges="4006726#1 -4006726#1 -4006726#0 -3998615#0"/>
<flow id="flow32" type="vtype32" route="route32" begin="0" period="20" number="10000"/>

<vType id="vtype33" accel="2.6" decel="4.5" sigma="0.5" length="2.5" minGap="2.5" maxSpeed="14" color="1,1,0"/>
<route id="route33" edges="-4006684 4006674#3 4006674#4 4006687 32270595"/>
<flow id="flow33" type="vtype33" route="route33" begin="0" period="30" number="10000"/>


<vType id="vtype34" accel="2.6" decel="4.5" sigma="0.5" length="2.5" minGap="2.5" maxSpeed="14" color="1,1,0"/>
<route id="route34" edges="-4006693#2 -4006693#1 -23605595 -8403007 -29900564#1 -8402998#2 -8402998#1 -8402997 32270595"/>
<flow id="flow34" type="vtype34" route="route34" begin="0" period="10" number="10000"/>

<vType id="vtype35" accel="2.6" decel="4.5" sigma="0.5" length="2.5" minGap="2.5" maxSpeed="14" color="1,1,0"/>
<route id="route35" edges="4006705#2 -4006705#2 -4006705#1 4006705#1"/>
<flow id="flow35" type="vtype35" route="route35" begin="0" period="15" number="10000"/>

<vType id="vtype36" accel="2.6" decel="4.5" sigma="0.5" length="2.5" minGap="2.5" maxSpeed="14" color="1,1,0"/>
<route id="route36" edges="31241835#0 -31241816#3 31241851#0 31241851#1 31241851#2 31255203#1 31241838#0"/>
<flow id="flow36" type="vtype36" route="route36" begin="0" period="20" number="10000"/>

<vType id="vtype37" accel="2.6" decel="4.5" sigma="0.5" length="2.5" minGap="2.5" maxSpeed="14" color="1,1,0"/>
<route id="route37" edges="31241853#0 31241853#1 -31241838#0 -31255203#1 -31255203#0 -4006702#0"/>
<flow id="flow37" type="vtype37" route="route37" begin="0" period="20" number="10000"/>

<vType id="vtype38" accel="2.6" decel="4.5" sigma="0.5" length="2.5" minGap="2.5" maxSpeed="14" color="1,1,0"/>
<route id="route38" edges="3998645#0 -3998645#0 -3998612#0"/>
<flow id="flow38" type="vtype38" route="route38" begin="0" period="20" number="10000"/>

<vType id="vtype39" accel="2.6" decel="4.5" sigma="0.5" length="2.5" minGap="2.5" maxSpeed="14" color="1,1,0"/>
<route id="route39" edges="4006725#1 3998612#1 3998643#0 3998643#1 3998643#2 -3998643#2"/>
<flow id="flow39" type="vtype39" route="route39" begin="0" period="30" number="10000"/>

<vType id="vtype40" accel="2.6" decel="4.5" sigma="0.5" length="2.5" minGap="2.5" maxSpeed="14" color="1,1,0"/>
<route id="route40" edges="31270441 31777493#0 31777493#1 -4900741 -4900739#2 -4900739#1 -4099309"/>
<flow id="flow40" type="vtype40" route="route40" begin="0" period="8" number="10000"/>

<vType id="vtype41" accel="2.6" decel="4.5" sigma="0.5" length="2.5" minGap="2.5" maxSpeed="14" color="1,1,0"/>
<route id="route41" edges="3998612#0 3998612#1 3998612#2 -10573414#1"/>
<flow id="flow41" type="vtype41" route="route41" begin="1" period="30" number="10000"/>

<vType id="vtype42" accel="2.6" decel="4.5" sigma="0.5" length="2.5" minGap="2.5" maxSpeed="14" color="1,1,0"/>
<route id="route42" edges="4006675 32270592#1 4047532 31401018 29900567 31401017#0 31401017#1 31401017#2"/>
<flow id="flow42" type="vtype42" route="route42" begin="1" period="30" number="10000"/>


<vType id="vtype43" accel="2.6" decel="4.5" sigma="0.5" length="2.5" minGap="2.5" maxSpeed="14" color="1,1,0"/>
<route id="route43" edges="41973977 -3998613#2 -3998613#1 -3998613#0 3998612#0 3998645#0 -4006726#2 4099270#0 4099270#1"/>
<flow id="flow43" type="vtype43" route="route43" begin="1" period="30" number="10000"/>

<vType id="vtype44" accel="2.6" decel="4.5" sigma="0.5" length="2.5" minGap="2.5" maxSpeed="14" color="1,1,0"/>
<route id="route44" edges="-4006724#1 -4047378 10573414#1 3013106#0 -3013107 -3013109"/>
<flow id="flow44" type="vtype44" route="route44" begin="1" period="10" number="10000"/>

<vType id="vtype45" accel="2.6" decel="4.5" sigma="0.5" length="2.5" minGap="2.5" maxSpeed="14" color="1,1,0"/>
<route id="route45" edges="-23570844#2 23570844#2 10419402 -4006693#1 -23605595 -23341293"/>
<flow id="flow45" type="vtype45" route="route45" begin="1" period="10" number="10000"/>

<vType id="vtype46" accel="2.6" decel="4.5" sigma="0.5" length="2.5" minGap="2.5" maxSpeed="14" color="1,1,0"/>
<route id="route46" edges="31241855#1 31241853#1 31241838#1"/>
<flow id="flow46" type="vtype46" route="route46" begin="1" period="20" number="10000"/>

<vType id="vtype47" accel="2.6" decel="4.5" sigma="0.5" length="2.5" minGap="2.5" maxSpeed="14" color="1,1,0"/>
<route id="route47" edges="-31720632#0 -4006705#2"/>
<flow id="flow47" type="vtype47" route="route47" begin="1" period="20" number="10000"/>

<vType id="vtype48" accel="2.6" decel="4.5" sigma="0.5" length="2.5" minGap="2.5" maxSpeed="14" color="1,1,0"/>
<route id="route48" edges="29900564#4 29900564#5 -4006690"/>
<flow id="flow48" type="vtype48" route="route48" begin="1" period="20" number="10000"/>

<vType id="vtype49" accel="2.6" decel="4.5" sigma="0.5" length="2.5" minGap="2.5" maxSpeed="14" color="1,1,0"/>
<route id="route49"  edges="125685391 32302591#0 32302591#1"/>
<flow id="flow49" type="vtype49" route="route49" begin="1" period="30" number="10000"/>

<vType id="vtype50" accel="2.6" decel="4.5" sigma="0.5" length="2.5" minGap="2.5" maxSpeed="14" color="1,1,0"/>
<route id="route50" edges="3998615#2 -4099270#0 4006726#2 -3998645#0 "/>
<flow id="flow50" type="vtype50" route="route50" begin="1" period="20" number="10000"/>

<vType id="vtype51" accel="2.6" decel="4.5" sigma="0.5" length="2.5" minGap="2.5" maxSpeed="14" color="1,1,0"/>
<route id="route51" edges="-29900561#0 29900564#0 29900564#1 29900564#2 29900564#3 -10425128#1"/>
<flow id="flow51" type="vtype51" route="route51" begin="1" period="20" number="10000"/>

<vType id="vtype52" accel="2.6" decel="4.5" sigma="0.5" length="2.5" minGap="2.5" maxSpeed="14" color="1,1,0"/>
<route id="route52" edges="-23570844#2 -5445204#3 -5445204#2 -23360299"/>
<flow id="flow52" type="vtype52" route="route52" begin="1" period="20" number="10000"/>

<vType id="vtype53" accel="2.6" decel="4.5" sigma="0.5" length="2.5" minGap="2.5" maxSpeed="14" color="1,1,0"/>
<route id="route53" edges="4392769 28269601 37591481 -37591481"/>
<flow id="flow53" type="vtype53" route="route53" begin="1" period="20" number="10000"/>


<vType id="vtype54" accel="2.6" decel="4.5" sigma="0.5" length="2.5" minGap="2.5" maxSpeed="14" color="1,1,0"/>
<route id="route54" edges="3998645#1 3998645#2"/>
<flow id="flow54" type="vtype54" route="route54" begin="1" period="10" number="10000"/>

<vType id="vtype55" accel="2.6" decel="4.5" sigma="0.5" length="2.5" minGap="2.5" maxSpeed="14" color="1,1,0"/>
<route id="route55" edges="-4006724#2 4006724#2 3998643#0 3998643#1 3998643#2"/>
<flow id="flow55" type="vtype55" route="route55" begin="1" period="20" number="10000"/>

<vType id="vtype56" accel="2.6" decel="4.5" sigma="0.5" length="2.5" minGap="2.5" maxSpeed="14" color="1,1,0"/>
<route id="route56" edges="-4099270#0 4006726#2 3998645#1 -3998615#3"/>
<flow id="flow56" type="vtype56" route="route56" begin="1" period="20" number="10000"/>

<vType id="vtype57" accel="2.6" decel="4.5" sigma="0.5" length="2.5" minGap="2.5" maxSpeed="14" color="1,1,0"/>
<route id="route57" edges="28269598 -28269598 -4006703#1 -4006705#0"/>
<flow id="flow57" type="vtype57" route="route57" begin="1" period="20" number="10000"/>

<vType id="vtype58" accel="2.6" decel="4.5" sigma="0.5" length="2.5" minGap="2.5" maxSpeed="14" color="1,1,0"/>
<route id="route58" edges="-5558 -4006693#4 -4006693#3 -4006693#2 -4006693#1 -4006693#0 25398494#0"/>
<flow id="flow58" type="vtype58" route="route58" begin="1" period="30" number="10000"/>

<vType id="vtype59" accel="2.6" decel="4.5" sigma="0.5" length="2.5" minGap="2.5" maxSpeed="14" color="1,1,0"/>
<route id="route59" edges="28269598 -23805514#1 23805514#1"/>
<flow id="flow59" type="vtype59" route="route59" begin="1" period="20" number="10000"/>

<vType id="vtype60" accel="2.6" decel="4.5" sigma="0.5" length="2.5" minGap="2.5" maxSpeed="14" color="1,1,0"/>
<route id="route60" edges="4900741 35842306#0 35842306#1 4047446#0 4047446#1"/>
<flow id="flow60" type="vtype60" route="route60" begin="1" period="30" number="10000"/>

<vType id="vtype61" accel="2.6" decel="4.5" sigma="0.5" length="2.5" minGap="2.5" maxSpeed="14" color="1,1,0"/>
<route id="route61" edges="4047316 -31270441 31777493#1 -4900741 -4900739#2 4690348"/>
<flow id="flow61" type="vtype61" route="route61" begin="1" period="20" number="10000"/>

<vType id="vtype62" accel="2.6" decel="4.5" sigma="0.5" length="2.5" minGap="2.5" maxSpeed="14" color="1,1,0"/>
<route id="route62" edges="10573414#0 4047378 "/>
<flow id="flow62" type="vtype62" route="route62" begin="1" period="20" number="10000"/>


<vType id="vtype63" accel="2.6" decel="4.5" sigma="0.5" length="2.5" minGap="2.5" maxSpeed="14" color="1,1,0"/>
<route id="route63"  edges="10419402 -4006693#1"/>
<flow id="flow63" type="vtype63" route="route63" begin="1" period="20" number="10000"/>

<vType id="vtype64" accel="2.6" decel="4.5" sigma="0.5" length="2.5" minGap="2.5" maxSpeed="14" color="1,1,0"/>
<route id="route64"  edges="23360299 -5445204#1 113939242#1"/>
<flow id="flow64" type="vtype64" route="route64" begin="1" period="20" number="10000"/>

<vType id="vtype65" accel="2.6" decel="4.5" sigma="0.5" length="2.5" minGap="2.5" maxSpeed="14" color="1,1,0"/>
<route id="route65"  edges="4319351 4319352#0 4006702#0 4006702#1 4006702#2 -28269598 -4006703#1"/>
<flow id="flow65" type="vtype65" route="route65" begin="1" period="40" number="10000"/>

<vType id="vtype66" accel="2.6" decel="4.5" sigma="0.5" length="2.5" minGap="2.5" maxSpeed="14" color="1,1,0"/>
<route id="route66" edges="54105725 -94344940#2 -94344940#0 28768072"/>
<flow id="flow66" type="vtype66" route="route66" begin="1" period="20" number="10000"/>

<vType id="vtype67" accel="2.6" decel="4.5" sigma="0.5" length="2.5" minGap="2.5" maxSpeed="14" color="1,1,0"/>
<route id="route67" edges="4006705#0 4006703#1 28269598"/>
<flow id="flow67" type="vtype67" route="route67" begin="1" period="20" number="10000"/>

<vType id="vtype68" accel="2.6" decel="4.5" sigma="0.5" length="2.5" minGap="2.5" maxSpeed="14" color="1,1,0"/>
<route id="route68" edges="4900043 4900041#1 4900041#2 4900041#3 4900041#0 -4900043 "/>
<flow id="flow68" type="vtype68" route="route68" begin="1" period="20" number="10000"/>

<vType id="vtype69" accel="2.6" decel="4.5" sigma="0.5" length="2.5" minGap="2.5" maxSpeed="14" color="1,1,0"/>
<route id="route69" edges="28613727#0 28613727#1 -94344940#0"/>
<flow id="flow69" type="vtype69" route="route69" begin="1" period="10" number="10000"/>

<vType id="vtype70" accel="2.6" decel="4.5" sigma="0.5" length="2.5" minGap="2.5" maxSpeed="14" color="1,1,0"/>
<route id="route70" edges="28269601 37591481"/>
<flow id="flow70" type="vtype70" route="route70" begin="1" period="15" number="10000"/>

<vType id="vtype71" accel="2.6" decel="4.5" sigma="0.5" length="2.5" minGap="2.5" maxSpeed="14" color="1,1,0"/>
<route id="route71" edges="23570844#1 23570844#2"/>
<flow id="flow71" type="vtype71" route="route71" begin="1" period="15" number="10000"/>

<vType id="vtype72" accel="2.6" decel="4.5" sigma="0.5" length="2.5" minGap="2.5" maxSpeed="14" color="1,1,0"/>
<route id="route72" edges="32611578 23805514#1"/>
<flow id="flow72" type="vtype72" route="route72" begin="1" period="20" number="10000"/>

<vType id="vtype73" accel="2.6" decel="4.5" sigma="0.5" length="2.5" minGap="2.5" maxSpeed="14" color="1,1,0"/>
<route id="route73" edges="4900739#0 4900739#1"/>
<flow id="flow73" type="vtype73" route="route73" begin="1" period="20" number="10000"/>

<vType id="vtype74" accel="2.6" decel="4.5" sigma="0.5" length="2.5" minGap="2.5" maxSpeed="14" color="1,1,0"/>
<route id="route74" edges="-31720632#0 -4006705#2"/>
<flow id="flow74" type="vtype74" route="route74" begin="1" period="20" number="10000"/>

<vType id="vtype75" accel="2.6" decel="4.5" sigma="0.5" length="2.5" minGap="2.5" maxSpeed="14" color="1,1,0"/>
<route id="route75" edges="-94344940#3 -94344940#2 -94344940#0 28768072 -28613737 "/>
<flow id="flow75" type="vtype75" route="route75" begin="1" period="20" number="10000"/>

</routes>
