[General]

cmdenv-express-mode = true
cmdenv-autoflush = true
cmdenv-status-frequency = 10s
cmdenv-interactive = true


network = lteNR.simulationsNR.Urban.NRSeveralBS

##########################################################
#            Simulation parameters                       #
##########################################################
debug-on-errors = true
print-undisposed = false

sim-time-limit = 600s 

seed-set = ${0,1,2}

simtime-resolution = ps
#**.scalar-recording = true
#**.vector-recording = true

#**.statistic-recording = false
**.cellularNic.**.statistic-recording = true
**.cellularNic.**.scalar-recording = true
**.cellularNic.**.vector-recording = true
**.app[*].statistic-recording = true
**.app[*].scalar-recording = true
**.app[*].*.vector-recording = true
*.server*.**.statistic-recording = true

**.ppp[*].**.statistic-recording = false
**.sctp.**.statistic-recording = false
**.sctp.statistic-recording = false
**.ppp.**.statistic-recording = false
**.pppIf.**.statistic-recording = false
**.pppInterface.**.statistic-recording = false
**.x2App[*].**.statistic-recording = false
**.x2ppp[*].**.statistic-recording = false
**.networkLayer.**.statistic-recording = false
**.lo0.**.statistic-recording = false
**.am.**.statistic-recording = false
**.am.statistic-recording = false
**.client.**.statistic-recording = false
**.cellularNic.sdap.**.statistic-recording = false
**.upf.**.statistic-recording = false
**.ppp*.**.statistic-recording = false
**.router.**.statistic-recording = false

**.coreDebug = false
**.routingRecorder.enabled = false

*.playgroundSizeX = 3000m
*.playgroundSizeY = 3000m
*.playgroundSizeZ = 50m

**.mtu = 40000B

##########################################################
#            VeinsManager parameters                     #
##########################################################
*.veinsManager.host = "localhost" 
*.veinsManager.moduleType = "lteNR.nr.common.nodes.cars.Car"
*.veinsManager.moduleName = "car"

*.veinsManager.launchConfig = xmldoc("erlangen.launchd.xml")
*.veinsManager.autoShutdown = true
*.veinsManager.updateInterval = 0.01s

*.obstacles.obstacles = xmldoc("config.xml", "//AnalogueModel[@type='SimpleObstacleShadowing']/obstacles")
*.annotations.draw = true

##########################################################
#                      Mobility                          #
##########################################################
*.car[*].mobilityType = "VeinsInetMobility"

**.cellInfo.positionUpdateInterval = 0.01s

##########################################################
#      IP configuration for dynamic-created UEs          #
##########################################################
# enrolled multicast groups must be set in the HostAutoConfigurator (instead of demo.xml), seperated by a single space character
*.car[*].configurator.mcastGroups = "224.0.0.10"

##########################################################
#			         channel parameters                  #
##########################################################
#**.channelControl.pMax = 20W
#**.channelControl.alpha = 2.0
#**.channelControl.sat = -80dBm

**.d2dCapable = false

**.scenarioNR = "DENSE_URBAN_EMBB"
**.channelModelType = "UMa_A"      
**.shadowing = true
**.nodeb_height = 25 # 25 is default
**.ue_height = 1.5
**.carrierfrequency = 2.1
**.building_height = 10 #20 is default
**.street_wide = 20
**.antennaGainUe = 0
**.antennGainEnB = 8
**.antennGainMicro = 5
**.thermalNoise = -104.5
**.ue_noise_figure = 7
**.bs_noise_figure = 5
**.cable_loss = 2
**.fading = true 
**.fading_type = "JAKES"
**.fading_paths = 1
**.extCell_interference = false
**.downlink_interference = true
**.uplink_interference = true
**.tolerateMaxDistViolation = true
**.targetBler = 0.01
**.blerShift = 0 
**.harqReduction = 0.2
**.lambdaMinTh = 0.02
**.lambdaMaxTh = 0.2
**.lambdaRatioTh = 20
**.correlation_distance = 1

**.useQosModel = false
**.newTxbeforeRtx = true

**.dynamicNlos = true #if true, NLOS evaluation in 2D is conducted, if false, NLOS evaluation is done with probability formulas
**.NlosEvaluationIn3D = true # if dynamicNlos is false, this flag is also false, if both flags are true, the NLOS is evaluated in 3D, only relevant when obstacles (buildings) are included (e.g., urban scenario)

**.mtu = 40000B

#**.processingDelayIn = uniform(0s,0.002s)
#**.processingDelayOut = uniform(0s,0.002s)

######################################

*.carrierAggregation.numComponentCarriers = 1
*.carrierAggregation.componentCarrier[0].carrierFrequency = 2.6GHz #${carrierFreq0=2GHz}
*.carrierAggregation.componentCarrier[0].numerologyIndex = 1 
*.carrierAggregation.componentCarrier[0].numBands = 51 #${carrierBands0=50}
*.carrierAggregation.componentCarrier[0].useTdd = false
#*.carrierAggregation.componentCarrier[1].carrierFrequency = ${carrierFreq1=6GHz}
#*.carrierAggregation.componentCarrier[1].numBands = ${carrierBands1=6}

*.gNodeB[*].cellularNic.numCarriers = 1
*.gNodeB[*].cellularNic.nrChannelModel[0].componentCarrierIndex = 0

*.car[*].cellularNic.numCarriers = 1
*.car[*].cellularNic.nrChannelModel[0].componentCarrierIndex = 0

#####################################

**.mac.schedulingDisciplineUl = "PF"
**.mac.schedulingDisciplineDl = "PF"
#PF
#MAXCI
#DRR

#**.txDirection = "ANISOTROPIC"
**.txDirection = "OMNI" #physical layer parameter

##########################################################
# Enable dynamic association of UEs (based on best SINR)
**.dynamicCellAssociation = true

**.car[*].macCellId = intuniform(1,8)    # useless if dynamic association is disabled
**.car[*].masterId = intuniform(1,8)     # useless if dynamic association is disabled
**.gNodeB1.macCellId = 1
**.gNodeB1.macNodeId = 1
**.gNodeB2.macCellId = 2
**.gNodeB2.macNodeId = 2 
**.gNodeB3.macCellId = 3
**.gNodeB3.macNodeId = 3
**.gNodeB4.macCellId = 4
**.gNodeB4.macNodeId = 4  
**.gNodeB5.macCellId = 5
**.gNodeB5.macNodeId = 5 
**.gNodeB6.macCellId = 6
**.gNodeB6.macNodeId = 6 
**.gNodeB7.macCellId = 7
**.gNodeB7.macNodeId = 7 
**.gNodeB8.macCellId = 8
**.gNodeB8.macNodeId = 8 
**.gNodeBCount = 8

**.useSINRThreshold = false #checks if the SINR of a UE is lower than SINRThreshold in UL
        
#2, 4, 6 or 8 codeblockgroups are allowed
**.useCodeBlockGroups = false
**.numberOfCodeBlockGroups = 8

############### AMC MODULE PARAMETERS ###############
**.rbAllocationType = "localized"
**.mac.amcMode = "AUTO"
**.feedbackType = "WIDEBAND"
**.feedbackGeneratorType = "IDEAL"
**.maxHarqRtx = 2
**.mac.queueSize = 2MiB

############### Transmission Power ##################
**.ueTxPower = 26
**.eNodeBTxPower = 46

# X2 and SCTP configuration
*.gNodeB*.numX2Apps = 7    # one x2App per peering eNodeB
*.gNodeB*.x2App[*].server*.localPort = 7000 + ancestorIndex(1) # Server ports (x2App[0]=5000, x2App[1]=5001, ...)

*.gNodeB1.x2App[0].client.connectAddress = "gNodeB2%x2ppp0"
*.gNodeB2.x2App[0].client.connectAddress = "gNodeB1%x2ppp0"

*.gNodeB1.x2App[1].client.connectAddress = "gNodeB3%x2ppp0"
*.gNodeB3.x2App[0].client.connectAddress = "gNodeB1%x2ppp1"

*.gNodeB1.x2App[2].client.connectAddress = "gNodeB4%x2ppp0"
*.gNodeB4.x2App[0].client.connectAddress = "gNodeB1%x2ppp2"

*.gNodeB1.x2App[3].client.connectAddress = "gNodeB5%x2ppp0"
*.gNodeB5.x2App[0].client.connectAddress = "gNodeB1%x2ppp3"

*.gNodeB1.x2App[4].client.connectAddress = "gNodeB6%x2ppp0"
*.gNodeB6.x2App[0].client.connectAddress = "gNodeB1%x2ppp4"

*.gNodeB1.x2App[5].client.connectAddress = "gNodeB7%x2ppp0"
*.gNodeB7.x2App[0].client.connectAddress = "gNodeB1%x2ppp5"

*.gNodeB2.x2App[1].client.connectAddress = "gNodeB3%x2ppp1"
*.gNodeB3.x2App[1].client.connectAddress = "gNodeB2%x2ppp1"

*.gNodeB2.x2App[2].client.connectAddress = "gNodeB4%x2ppp1"
*.gNodeB4.x2App[1].client.connectAddress = "gNodeB2%x2ppp2"

*.gNodeB2.x2App[3].client.connectAddress = "gNodeB5%x2ppp1"
*.gNodeB5.x2App[1].client.connectAddress = "gNodeB2%x2ppp3"

*.gNodeB2.x2App[4].client.connectAddress = "gNodeB6%x2ppp1"
*.gNodeB6.x2App[1].client.connectAddress = "gNodeB2%x2ppp4"

*.gNodeB2.x2App[5].client.connectAddress = "gNodeB7%x2ppp1"
*.gNodeB7.x2App[1].client.connectAddress = "gNodeB2%x2ppp5"

*.gNodeB3.x2App[2].client.connectAddress = "gNodeB4%x2ppp2"
*.gNodeB4.x2App[2].client.connectAddress = "gNodeB3%x2ppp2"

*.gNodeB3.x2App[3].client.connectAddress = "gNodeB5%x2ppp2"
*.gNodeB5.x2App[2].client.connectAddress = "gNodeB3%x2ppp3"

*.gNodeB3.x2App[4].client.connectAddress = "gNodeB6%x2ppp2"
*.gNodeB6.x2App[2].client.connectAddress = "gNodeB3%x2ppp4"

*.gNodeB3.x2App[5].client.connectAddress = "gNodeB7%x2ppp2"
*.gNodeB7.x2App[2].client.connectAddress = "gNodeB3%x2ppp5"

*.gNodeB4.x2App[3].client.connectAddress = "gNodeB5%x2ppp3"
*.gNodeB5.x2App[3].client.connectAddress = "gNodeB4%x2ppp3"

*.gNodeB4.x2App[4].client.connectAddress = "gNodeB6%x2ppp3"
*.gNodeB6.x2App[3].client.connectAddress = "gNodeB4%x2ppp4"

*.gNodeB4.x2App[5].client.connectAddress = "gNodeB7%x2ppp3"
*.gNodeB7.x2App[3].client.connectAddress = "gNodeB4%x2ppp5"

*.gNodeB5.x2App[4].client.connectAddress = "gNodeB6%x2ppp4"
*.gNodeB6.x2App[4].client.connectAddress = "gNodeB5%x2ppp4"

*.gNodeB5.x2App[5].client.connectAddress = "gNodeB7%x2ppp4"
*.gNodeB7.x2App[4].client.connectAddress = "gNodeB5%x2ppp5"

*.gNodeB6.x2App[5].client.connectAddress = "gNodeB7%x2ppp5"
*.gNodeB7.x2App[5].client.connectAddress = "gNodeB6%x2ppp5"

*.gNodeB1.x2App[6].client.connectAddress = "gNodeB8%x2ppp0"
*.gNodeB8.x2App[0].client.connectAddress = "gNodeB1%x2ppp6"

*.gNodeB2.x2App[6].client.connectAddress = "gNodeB8%x2ppp1"
*.gNodeB8.x2App[1].client.connectAddress = "gNodeB2%x2ppp6"

*.gNodeB3.x2App[6].client.connectAddress = "gNodeB8%x2ppp2"
*.gNodeB8.x2App[2].client.connectAddress = "gNodeB3%x2ppp6"

*.gNodeB4.x2App[6].client.connectAddress = "gNodeB8%x2ppp3"
*.gNodeB8.x2App[3].client.connectAddress = "gNodeB4%x2ppp6"

*.gNodeB5.x2App[6].client.connectAddress = "gNodeB8%x2ppp4"
*.gNodeB8.x2App[4].client.connectAddress = "gNodeB5%x2ppp6"

*.gNodeB6.x2App[6].client.connectAddress = "gNodeB8%x2ppp5"
*.gNodeB8.x2App[5].client.connectAddress = "gNodeB6%x2ppp6"

*.gNodeB7.x2App[6].client.connectAddress = "gNodeB8%x2ppp6"
*.gNodeB8.x2App[6].client.connectAddress = "gNodeB7%x2ppp6"

**.sctp.nagleEnabled = false         # if true, transmission of small packets will be delayed on the X2
**.sctp.enableHeartbeats = false

##########################################################################################################################

[Config VideoDL]

*.car[*].numApps = 1
*.server1.numApps = 1
*.server2.numApps = 0
*.server3.numApps = 0

sim-time-limit = 600s

**.server1.app[0].typename = "lteNR.nr.apps.TrafficGenerator.TrafficGeneratorServerDL"
**.server1.app[0].packetName = "Video"
**.server1.app[0].localPort = 9999
**.server1.app[0].destPort = 5088 #+ancestorIndex(1)
**.server1.app[0].startTime = 0.1s
**.server1.app[0].startTimeDL = 15s
**.server1.app[0].sendInterval = 25ms
**.server1.app[0].messageLength = 15000B

# Receivers
**.car[*].app[0].typename = "lteNR.nr.apps.TrafficGenerator.TrafficGeneratorCarDL"
**.car[*].app[0].destAddresses = "server1"
**.car[*].app[0].localPort = 5088 #+ancestorIndex(0) 
**.car[*].app[0].destPort = 9999
**.car[*].app[0].sendInterval = 25ms
**.car[*].app[0].messageLength = 15000B

# Enable handover
**.enableHandover = true
**.handoverLatency = 0.001s
**.handoverDelta = 0.0001s
**.broadcastMessageInterval = 1s

result-dir = VideoDL-Urban
output-vector-file = ${resultdir}/vector-${seedset}.vec
output-scalar-file = ${resultdir}/scalar-${seedset}.sca

######################################################################################################################################

[Config VideoUL]
# one VoIP and one Video app for this two clients
*.car[*].numApps = 1
*.server1.numApps = 1
*.server2.numApps = 0
*.server3.numApps = 0

sim-time-limit = 600s

**.car[*].app[0].typename = "lteNR.nr.apps.TrafficGenerator.TrafficGeneratorCarUL"
**.car[*].app[0].packetName = "Video"
**.car[*].app[0].destAddresses = "server1"
**.car[*].app[0].localPort = 9999
**.car[*].app[0].destPort = 5088 #+ancestorIndex(1)
**.car[*].app[0].startTime = 15s
**.car[*].app[0].sendInterval = 25ms
**.car[*].app[0].messageLength = 15000B

**.server1.app[0].typename = "lteNR.nr.apps.TrafficGenerator.TrafficGeneratorServerUL"
**.server1.app[0].localPort = 5088 #+ancestorIndex(0) 
**.server1.app[0].destPort = 9999
**.server1.app[0].sendInterval = 25ms
**.server1.app[0].messageLength = 15000B
**.server1.app[0].startTimeDL = 15s

# Enable handover
**.enableHandover = true
**.handoverLatency = 0.001s
**.handoverDelta = 0.0001s
**.broadcastMessageInterval = 1s

result-dir = VideoUL-Urban
output-vector-file = ${resultdir}/vector-${seedset}.vec
output-scalar-file = ${resultdir}/scalar-${seedset}.sca

####################################################################################################################################

######################################################################################################################################
[Config UL4Applications]
# one VoIP and one Video app for this two clients
*.car[*].numApps = 4
*.server1.numApps = 4
*.server2.numUdpApps = 0
*.server3.numUdpApps = 0

sim-time-limit = 600s

**.car[*].app[0].typename = "lteNR.nr.apps.TrafficGenerator.TrafficGeneratorCarUL"
**.car[*].app[0].packetName = "V2X"
**.car[*].app[0].destAddresses = "server1"
**.car[*].app[0].localPort = 9999
**.car[*].app[0].destPort = 5088 #+ancestorIndex(1)
**.car[*].app[0].startTime = 5s
**.car[*].app[0].messageLength = 200B
**.car[*].app[0].sendInterval = 0.1s

**.server1.app[0].typename = "lteNR.nr.apps.TrafficGenerator.TrafficGeneratorServerUL"
**.server1.app[0].localPort = 5088 #+ancestorIndex(0) 
**.server1.app[0].destPort = 9999
**.server1.app[0].messageLength = 200B
**.server1.app[0].sendInterval = 0.1s

#Video
**.car[*].app[1].typename = "lteNR.nr.apps.TrafficGenerator.TrafficGeneratorCarUL"
**.car[*].app[1].packetName = "VoIP"
**.car[*].app[1].destAddresses = "server1"
**.car[*].app[1].localPort = 9998
**.car[*].app[1].destPort = 5087 #+ancestorIndex(1)
**.car[*].app[1].startTime = 15s
**.car[*].app[1].messageLength = 50B
**.car[*].app[1].sendInterval = 0.02s

**.server1.app[1].typename = "lteNR.nr.apps.TrafficGenerator.TrafficGeneratorServerUL"
**.server1.app[1].localPort = 5087 #+ancestorIndex(0) 
**.server1.app[1].destPort = 9998
**.server1.app[1].messageLength = 50B
**.server1.app[1].sendInterval = 0.02s

#VoIP
**.car[*].app[2].typename = "lteNR.nr.apps.TrafficGenerator.TrafficGeneratorCarUL"
**.car[*].app[2].packetName = "Video"
**.car[*].app[2].destAddresses = "server1"
**.car[*].app[2].localPort = 9997
**.car[*].app[2].destPort = 5086 #+ancestorIndex(1)
**.car[*].app[2].startTime = 15s
**.car[*].app[2].messageLength = 15000B
**.car[*].app[2].sendInterval = 0.025s

**.server1.app[2].typename = "lteNR.nr.apps.TrafficGenerator.TrafficGeneratorServerUL"
**.server1.app[2].localPort = 5086 #+ancestorIndex(0) 
**.server1.app[2].destPort = 9997
**.server1.app[2].messageLength = 15000B
**.server1.app[2].sendInterval = 0.025s

#Data
**.car[*].app[3].typename = "lteNR.nr.apps.TrafficGenerator.TrafficGeneratorCarUL"
**.car[*].app[3].packetName = "Data"
**.car[*].app[3].destAddresses = "server1"
**.car[*].app[3].localPort = 9996
**.car[*].app[3].destPort = 5085 #+ancestorIndex(1)
**.car[*].app[3].startTime = 15s
**.car[*].app[3].messageLength = 1400B
**.car[*].app[3].sendInterval = 0.12s

**.server1.app[3].typename = "lteNR.nr.apps.TrafficGenerator.TrafficGeneratorServerUL"
**.server1.app[3].localPort = 5085 #+ancestorIndex(0) 
**.server1.app[3].destPort = 9996
**.server1.app[3].sendInterval = 0.12s
**.server1.app[3].messageLength = 1400B

# Enable handover
**.enableHandover = true
**.handoverLatency = 0.001s
**.handoverDelta = 0.0001s
**.broadcastMessageInterval = 1s

result-dir = UL-4Applications-Urban
output-vector-file = ${resultdir}/vector-${seedset}.vec
output-scalar-file = ${resultdir}/scalar-${seedset}.sca

###################################################################################################################################

[Config DL4Applications]
# one VoIP and one Video app for this two clients
*.car[*].numApps = 4
*.server1.numApps = 4
*.server2.numUdpApps = 0
*.server3.numUdpApps = 0

sim-time-limit = 600s

#VoIP
*.server1.app[0].typename = "lteNR.nr.apps.TrafficGenerator.TrafficGeneratorServerDL"
*.server1.app[0].packetName = "V2X"
*.server1.app[0].localPort = 9999
*.server1.app[0].destPort = 5088 #+ancestorIndex(1)
*.server1.app[0].startTime = 0.1s
*.server1.app[0].startTimeDL = 15s
*.server1.app[0].messageLength = 200B
*.server1.app[0].sendInterval = 0.1s

*.car[*].app[0].typename = "lteNR.nr.apps.TrafficGenerator.TrafficGeneratorCarDL"
*.car[*].app[0].destAddresses = "server1"
*.car[*].app[0].localPort = 5088 #+ancestorIndex(0) 
*.car[*].app[0].destPort = 9999
*.car[*].app[0].messageLength = 200B
*.car[*].app[0].sendInterval = 0.1s

#V2X
*.server1.app[1].typename = "lteNR.nr.apps.TrafficGenerator.TrafficGeneratorServerDL"
*.server1.app[1].packetName = "VoIP"
*.server1.app[1].localPort = 9998
*.server1.app[1].destPort = 5087 #+ancestorIndex(1)
*.server1.app[1].startTime = 0.1s
*.server1.app[1].startTimeDL = 15s
*.server1.app[1].messageLength = 50B
*.server1.app[1].sendInterval = 0.02s

*.car[*].app[1].typename = "lteNR.nr.apps.TrafficGenerator.TrafficGeneratorCarDL"
*.car[*].app[1].destAddresses = "server1"
*.car[*].app[1].localPort = 5087 #+ancestorIndex(0) 
*.car[*].app[1].destPort = 9998
*.car[*].app[1].messageLength = 50B
*.car[*].app[1].sendInterval = 0.02s

#Video
*.server1.app[2].typename = "lteNR.nr.apps.TrafficGenerator.TrafficGeneratorServerDL"
*.server1.app[2].packetName = "Video"
*.server1.app[2].localPort = 9997
*.server1.app[2].destPort = 5086 #+ancestorIndex(1)
*.server1.app[2].startTime = 0.1s
*.server1.app[2].startTimeDL = 15s
*.server1.app[2].messageLength = 15000B
*.server1.app[2].sendInterval = 25ms

*.car[*].app[2].typename = "lteNR.nr.apps.TrafficGenerator.TrafficGeneratorCarDL"
*.car[*].app[2].destAddresses = "server1"
*.car[*].app[2].localPort = 5086 #+ancestorIndex(0) 
*.car[*].app[2].destPort = 9997
*.car[*].app[2].messageLength = 15000B
*.car[*].app[2].sendInterval = 25ms

#Data
*.server1.app[3].typename = "lteNR.nr.apps.TrafficGenerator.TrafficGeneratorServerDL"
*.server1.app[3].packetName = "Data"
*.server1.app[3].localPort = 9996
*.server1.app[3].destPort = 5085 #+ancestorIndex(1)
*.server1.app[3].startTime = 0.1s
*.server1.app[3].startTimeDL = 15s
*.server1.app[3].messageLength = 1400B
*.server1.app[3].sendInterval = 0.12s

*.car[*].app[3].typename = "lteNR.nr.apps.TrafficGenerator.TrafficGeneratorCarDL"
*.car[*].app[3].destAddresses = "server1"
*.car[*].app[3].localPort = 5085 #+ancestorIndex(0) 
*.car[*].app[3].destPort = 9996
*.car[*].app[3].messageLength = 1400B
*.car[*].app[3].sendInterval = 0.12s

# Enable handover
**.enableHandover = true
**.handoverLatency = 0.001s
**.handoverDelta = 0.0001s
**.broadcastMessageInterval = 1s

result-dir = DL-4Applications-Urban
output-vector-file = ${resultdir}/vector-${seedset}.vec
output-scalar-file = ${resultdir}/scalar-${seedset}.sca

########################################################################################################################
##########################################################################################################################
[Config RemoteDrivingDL]

*.car[*].numApps = 2
*.server1.numApps = 2
*.server2.numApps = 0
*.server3.numApps = 0

sim-time-limit = 600s

#V2X
**.server1.app[0].typename = "lteNR.nr.apps.TrafficGenerator.TrafficGeneratorServerDL"
**.server1.app[0].packetName = "V2X"
**.server1.app[0].localPort = 9999
**.server1.app[0].destPort = 5088 #+ancestorIndex(1)
**.server1.app[0].startTime = 0.1s
**.server1.app[0].startTimeDL = 15s
**.server1.app[0].messageLength = 15000B
**.server1.app[0].sendInterval = 25ms

**.car[*].app[0].typename = "lteNR.nr.apps.TrafficGenerator.TrafficGeneratorCarDL"
**.car[*].app[0].destAddresses = "server1"
**.car[*].app[0].localPort = 5088 #+ancestorIndex(0) 
**.car[*].app[0].destPort = 9999
**.car[*].app[0].messageLength = 15000B
**.car[*].app[0].sendInterval = 25ms

#Data
**.server1.app[1].typename = "lteNR.nr.apps.TrafficGenerator.TrafficGeneratorServerDL"
**.server1.app[1].packetName = "Data"
**.server1.app[1].localPort = 9998
**.server1.app[1].destPort = 5087 #+ancestorIndex(1)
**.server1.app[1].startTime = 0.1s
**.server1.app[1].startTimeDL = 15s
**.server1.app[1].messageLength = intuniform(100B,1000B)
**.server1.app[1].sendInterval = uniform(0.01s,2s)

**.car[*].app[1].typename = "lteNR.nr.apps.TrafficGenerator.TrafficGeneratorCarDL"
**.car[*].app[1].destAddresses = "server1"
**.car[*].app[1].localPort = 5087 #+ancestorIndex(0) 
**.car[*].app[1].destPort = 9998
**.car[*].app[1].messageLength = intuniform(100B,1000B)
**.car[*].app[1].sendInterval = uniform(0.01s,2s)

# Enable handover
**.enableHandover = true
**.handoverLatency = 0.001s
**.handoverDelta = 0.0001s
**.broadcastMessageInterval = 1s

**.remoteDrivingDL = true
**.remoteCarFactor = 1
**.remoteCarJustOne = true

result-dir = RemoteDrivingDL-Urban
output-vector-file = ${resultdir}/vector-${seedset}.vec
output-scalar-file = ${resultdir}/scalar-${seedset}.sca


########################################################################################################################
##########################################################################################################################
[Config RemoteDrivingUL]

*.car[*].numApps = 2
*.server1.numApps = 2
*.server2.numApps = 0
*.server3.numApps = 0

sim-time-limit = 600s

#V2X - every 10th car is a remote car
**.car[*].app[0].typename = "lteNR.nr.apps.TrafficGenerator.TrafficGeneratorCarUL"
**.car[*].app[0].packetName = "V2X"
**.car[*].app[0].destAddresses = "server1"
**.car[*].app[0].localPort = 9998
**.car[*].app[0].destPort = 5087 #+ancestorIndex(1)
**.car[*].app[0].startTime = 15s
**.car[*].app[0].messageLength = 15000B
**.car[*].app[0].sendInterval = 25ms

**.server1.app[0].typename = "lteNR.nr.apps.TrafficGenerator.TrafficGeneratorServerUL"
**.server1.app[0].localPort = 5087 #+ancestorIndex(0) 
**.server1.app[0].destPort = 9998
**.server1.app[0].messageLength = 15000B
**.server1.app[0].sendInterval = 25ms

####
#Data
**.car[*].app[1].typename = "lteNR.nr.apps.TrafficGenerator.TrafficGeneratorCarUL"
**.car[*].app[1].packetName = "Data"
**.car[*].app[1].destAddresses = "server1"
**.car[*].app[1].localPort = 9999
**.car[*].app[1].destPort = 5088 #+ancestorIndex(1)
**.car[*].app[1].startTime = 15s
**.car[*].app[1].messageLength = intuniform(100B,1000B)
**.car[*].app[1].sendInterval = uniform(0.01s,2s)

**.server1.app[1].typename = "lteNR.nr.apps.TrafficGenerator.TrafficGeneratorServerUL"
**.server1.app[1].localPort = 5088 #+ancestorIndex(0) 
**.server1.app[1].destPort = 9999
**.server1.app[1].messageLength = intuniform(100B,1000B)
**.server1.app[1].sendInterval = uniform(0.01s,2s)

# Enable handover
**.enableHandover = true
**.handoverLatency = 0.001s
**.handoverDelta = 0.0001s
**.broadcastMessageInterval = 1s

**.remoteDrivingUL = true
**.remoteCarFactor = 10
**.remoteCarJustOne = false

result-dir = RemoteDrivingUL-Urban-PF-Var-RTXOn-2RTX-52rb-15num-2100MHz-intf-nrHarq
output-vector-file = ${resultdir}/vector-${seedset}.vec
output-scalar-file = ${resultdir}/scalar-${seedset}.sca


###########################################################################################################################
#
#[Config TeleconfDL]
#
#*.car[*].numUdpApps = 1
#*.server1.numUdpApps = 1
#*.server2.numUdpApps = 0
#*.server3.numUdpApps = 0
#
## DATA
#**.car[*].mobility.initFromDisplayString = false
#sim-time-limit = 600s
#
#**.server1.udpApp[0].typename = "nr.apps.TrafficGenerator.TrafficGeneratorServerDL"
#**.server1.udpApp[0].packetName = "VoIP"
#**.server1.udpApp[0].localPort = 9999
#**.server1.udpApp[0].destPort = 5088 #+ancestorIndex(1)
#**.server1.udpApp[0].startTime = 0.1s
#**.server1.udpApp[0].startTimeDL = 15s
#**.server1.udpApp[0].sendInterval = 20ms
#**.server1.udpApp[0].messageLength = 50B
#
## Video Server Configuration
#**.car[*].udpApp[0].typename = "nr.apps.TrafficGenerator.TrafficGeneratorCarDL"
#**.car[*].udpApp[0].destAddresses = "server1"
#**.car[*].udpApp[0].localPort = 5088 #+ancestorIndex(0) 
#**.car[*].udpApp[0].destPort = 9999
#**.car[*].udpApp[0].sendInterval = 20ms
#**.car[*].udpApp[0].messageLength = 50B
#
#**.car[*].udpApp[0].considerDatasizeAndMessages = false
#**.server1.udpApp[0].considerDatasizeAndMessages = false
#
## Enable handover
#**.enableHandover = true
#**.handoverLatency = 0.001s
#**.handoverDelta = 0.0001s
#**.broadcastMessageInterval = 1s
#**.exchangeBuffersOnHandover = false # exchange all buffers between old and new masterNodeB
#

#
#result-dir = TeleconfDL-Urban-PF-Var-RTXOn-2RTX-52rb-15num-2100MHz-intf-nrHarq
#output-vector-file = ${resultdir}/vector-${seedset}.vec
#output-scalar-file = ${resultdir}/scalar-${seedset}.sca
#
######################################################################################################################################
#
#[Config TeleconfUL]
## one VoIP and one Video app for this two clients
#*.car[*].numUdpApps = 1
#*.server1.numUdpApps = 1
#*.server2.numUdpApps = 0
#*.server3.numUdpApps = 0
#
## DATA
#**.car[*].mobility.initFromDisplayString = false
#sim-time-limit = 600s
#
#**.car[*].udpApp[0].typename = "nr.apps.TrafficGenerator.TrafficGeneratorCarUL"
#**.car[*].udpApp[0].packetName = "VoIP"
#**.car[*].udpApp[0].destAddresses = "server1"
#**.car[*].udpApp[0].localPort = 9999
#**.car[*].udpApp[0].destPort = 5088 #+ancestorIndex(1)
#**.car[*].udpApp[0].startTime = 15s
#**.car[*].udpApp[0].sendInterval = 20ms
#**.car[*].udpApp[0].messageLength = 50B
#
#**.car[*].udpApp[0].considerDatasizeAndMessages = false
#**.server1.udpApp[0].considerDatasizeAndMessages = false
#
#**.server1.udpApp[0].typename = "nr.apps.TrafficGenerator.TrafficGeneratorServerUL"
#**.server1.udpApp[0].localPort = 5088 #+ancestorIndex(0) 
#**.server1.udpApp[0].destPort = 9999
#**.server1.udpApp[0].startTimeDL = 15s
#**.server1.udpApp[0].sendInterval = 20ms
#**.server1.udpApp[0].messageLength = 50B
#
## Enable handover
#**.enableHandover = true
#**.handoverLatency = 0.001s
#**.handoverDelta = 0.0001s
#**.broadcastMessageInterval = 1s
#**.exchangeBuffersOnHandover = false # exchange all buffers between old and new masterNodeB
#
#
#
#result-dir = TeleconfUL-Urban-PF-Var-RTXOn-2RTX-52rb-15num-2100MHz-intf-nrHarq
#output-vector-file = ${resultdir}/vector-${seedset}.vec
#output-scalar-file = ${resultdir}/scalar-${seedset}.sca
#
###################################################################################################################################

#########################################################################################################################
#
#[Config HDMapDL]
#
#*.car[*].numUdpApps = 1
#*.server1.numUdpApps = 1
#*.server2.numUdpApps = 0
#*.server3.numUdpApps = 0
#
## DATA
#**.car[*].mobility.initFromDisplayString = false
#sim-time-limit = 600s
#
#**.server1.udpApp[0].typename = "nr.apps.TrafficGenerator.TrafficGeneratorServerDL"
#**.server1.udpApp[0].packetName = "Data"
#**.server1.udpApp[0].localPort = 9999
#**.server1.udpApp[0].destPort = 5088 #+ancestorIndex(1)
#**.server1.udpApp[0].startTime = 0.1s
#**.server1.udpApp[0].startTimeDL = 15s
#**.server1.udpApp[0].sendInterval = 30ms
#**.server1.udpApp[0].messageLength = 32000B
#
## Video Server Configuration
#**.car[*].udpApp[0].typename = "nr.apps.TrafficGenerator.TrafficGeneratorCarDL"
#**.car[*].udpApp[0].destAddresses = "server1"
#**.car[*].udpApp[0].localPort = 5088 #+ancestorIndex(0) 
#**.car[*].udpApp[0].destPort = 9999
#**.car[*].udpApp[0].sendInterval = 30ms
#**.car[*].udpApp[0].messageLength = 32000B
#
#**.considerDatasizeAndMessages = true
#
## Enable handover
#**.enableHandover = true
#**.handoverLatency = 0.001s
#**.handoverDelta = 0.0001s
#**.broadcastMessageInterval = 1s
#**.exchangeBuffersOnHandover = false # exchange all buffers between old and new masterNodeB
#
#
#
#result-dir = HDMapDL-Urban-PF-Var-RTXOn-2RTX-52rb-15num-2100MHz-intf-nrHarq
#output-vector-file = ${resultdir}/vector-${seedset}.vec
#output-scalar-file = ${resultdir}/scalar-${seedset}.sca
#
#######################################################################################################################################
#
#[Config HDMapUL]
## one VoIP and one Video app for this two clients
#*.car[*].numUdpApps = 1
#*.server1.numUdpApps = 1
#*.server2.numUdpApps = 0
#*.server3.numUdpApps = 0
#
## DATA
#**.car[*].mobility.initFromDisplayString = false
#sim-time-limit = 600s
#
#**.car[*].udpApp[0].typename = "nr.apps.TrafficGenerator.TrafficGeneratorCarUL"
#**.car[*].udpApp[0].packetName = "Data"
#**.car[*].udpApp[0].destAddresses = "server1"
#**.car[*].udpApp[0].localPort = 9999
#**.car[*].udpApp[0].destPort = 5088 #+ancestorIndex(1)
#**.car[*].udpApp[0].startTime = 15s
#**.car[*].udpApp[0].sendInterval = 30ms
#**.car[*].udpApp[0].messageLength = 32000B
#
#**.server1.udpApp[0].typename = "nr.apps.TrafficGenerator.TrafficGeneratorServerUL"
#**.server1.udpApp[0].localPort = 5088 #+ancestorIndex(0) 
#**.server1.udpApp[0].destPort = 9999
#**.server1.udpApp[0].sendInterval = 30ms
#**.server1.udpApp[0].messageLength = 32000B
#
#**.considerDatasizeAndMessages = true
#
## Enable handover
#**.enableHandover = true
#**.handoverLatency = 0.001s
#**.handoverDelta = 0.0001s
#**.broadcastMessageInterval = 1s
#**.exchangeBuffersOnHandover = false # exchange all buffers between old and new masterNodeB
#
#
#
#result-dir = HDMapUL-Urban-PF-Var-RTXOn-2RTX-52rb-15num-2100MHz-intf-nrHarq
#output-vector-file = ${resultdir}/vector-${seedset}.vec
#output-scalar-file = ${resultdir}/scalar-${seedset}.sca
#
###################################################################################################################################

