<?xml version="1.0" encoding="UTF-8"?>

<!-- generated on Tue Oct 22 13:03:30 2019 by Eclipse SUMO duarouter Version 1.0.0
<configuration xmlns:xsi="http://www.w3.org/2001/XMLSchema-instance" xsi:noNamespaceSchemaLocation="http://sumo.dlr.de/xsd/duarouterConfiguration.xsd">

    <input>
        <net-file value="autobahnSimple.net.xml"/>
        <route-files value="trips001.xml"/>
    </input>

    <output>
        <output-file value="autobahnSimple001.rou.xml"/>
        <alternatives-output value="autobahnSimple001.rou.alt.xml"/>
    </output>

    <processing>
        <repair value="true"/>
    </processing>

</configuration>
-->

<routes xmlns:xsi="http://www.w3.org/2001/XMLSchema-instance" xsi:noNamespaceSchemaLocation="http://sumo.dlr.de/xsd/routes_file.xsd">
    <vehicle id="0" depart="0.01" accel="2.5" decel="4.3" sigma="0.5" length="4.74" minGap="3.89" maxSpeed="40.9">
        <route edges="275413837 275413841 288193247"/>
    </vehicle>
    <vehicle id="1" depart="0.01" accel="2.66" decel="4.38" sigma="0.5" length="4.04" minGap="4.11" maxSpeed="20.29">
        <route edges="44288195 288193246 275413828 143837872"/>
    </vehicle>
    <vehicle id="2" depart="0.01" accel="2.06" decel="4.44" sigma="0.5" length="3.67" minGap="4.4" maxSpeed="29.90">
        <route edges="275413841"/>
    </vehicle>
    <vehicle id="4" depart="0.01" accel="2.74" decel="4.03" sigma="0.5" length="4.84" minGap="4.37" maxSpeed="25.7">
        <route edges="275413841"/>
    </vehicle>
    <vehicle id="5" depart="0.01" accel="2.38" decel="4.25" sigma="0.5" length="3.06" minGap="2.66" maxSpeed="44.90">
        <route edges="288193246 275413828 143837872"/>
    </vehicle>
    <vehicle id="6" depart="0.01" accel="2.06" decel="4.12" sigma="0.5" length="4.68" minGap="2.98" maxSpeed="37.3">
        <route edges="275413841"/>
    </vehicle>
    <vehicle id="7" depart="0.01" accel="2.77" decel="4.63" sigma="0.5" length="4.63" minGap="2.44" maxSpeed="37.1">
        <route edges="275413831 275413837 275413841 288193247"/>
    </vehicle>
    <vehicle id="9" depart="0.01" accel="2.5" decel="4.72" sigma="0.5" length="4.68" minGap="2.63" maxSpeed="31.7">
        <route edges="275413831 275413837 275413841 288193247"/>
    </vehicle>
    <vehicle id="10" depart="0.01" accel="2.87" decel="4.94" sigma="0.5" length="3.71" minGap="2.34" maxSpeed="48.3">
        <route edges="288193246 275413828"/>
    </vehicle>
    <vehicle id="12" depart="0.01" accel="2.68" decel="4.88" sigma="0.5" length="3.03" minGap="3.51" maxSpeed="31.20">
        <route edges="275413841"/>
    </vehicle>
    <vehicle id="14" depart="0.01" accel="2.1" decel="4.02" sigma="0.5" length="3.93" minGap="3.62" maxSpeed="43.9">
        <route edges="288193246 275413828"/>
    </vehicle>
    <vehicle id="15" depart="0.01" accel="2.97" decel="4.45" sigma="0.5" length="3.08" minGap="2.14" maxSpeed="20.7">
        <route edges="44288195 288193246 275413828 143837872"/>
    </vehicle>
    <vehicle id="16" depart="0.01" accel="2.96" decel="4.39" sigma="0.5" length="3.15" minGap="3.23" maxSpeed="44.80">
        <route edges="275413841"/>
    </vehicle>
    <vehicle id="18" depart="0.01" accel="2.62" decel="4.12" sigma="0.5" length="3.8" minGap="2.68" maxSpeed="48.2">
        <route edges="275413831 275413837 275413841 288193247"/>
    </vehicle>
    <vehicle id="20" depart="0.01" accel="2.37" decel="4.19" sigma="0.5" length="4.4" minGap="4.69" maxSpeed="36.5">
        <route edges="275413831 275413837 275413841 288193247"/>
    </vehicle>
    <vehicle id="22" depart="0.01" accel="2.84" decel="4.15" sigma="0.5" length="3.28" minGap="4.31" maxSpeed="45.8">
        <route edges="275413837 275413841 288193247"/>
    </vehicle>
    <vehicle id="23" depart="0.01" accel="2.86" decel="4.71" sigma="0.5" length="4.98" minGap="4.66" maxSpeed="48.2">
        <route edges="288193246 275413828"/>
    </vehicle>
    <vehicle id="24" depart="0.01" accel="2.5" decel="4.34" sigma="0.5" length="3.7" minGap="4.85" maxSpeed="42.69">
        <route edges="288193246 275413828"/>
    </vehicle>
    <vehicle id="25" depart="0.01" accel="2.91" decel="4.1" sigma="0.5" length="4.39" minGap="2.53" maxSpeed="36.1">
        <route edges="288193246"/>
    </vehicle>
    <vehicle id="26" depart="0.01" accel="2.32" decel="4.17" sigma="0.5" length="4.98" minGap="4.47" maxSpeed="37.0">
        <route edges="275413831 275413837 275413841"/>
    </vehicle>
    <vehicle id="27" depart="0.01" accel="2.56" decel="4.79" sigma="0.5" length="4.41" minGap="2.28" maxSpeed="29.1">
        <route edges="275413831 275413837 275413841"/>
    </vehicle>
    <vehicle id="28" depart="0.01" accel="2.94" decel="4.55" sigma="0.5" length="4.38" minGap="2.34" maxSpeed="22.0">
        <route edges="275413837 275413841 288193247"/>
    </vehicle>
    <vehicle id="29" depart="0.01" accel="2.22" decel="4.06" sigma="0.5" length="3.86" minGap="4.49" maxSpeed="41.7">
        <route edges="288193246"/>
    </vehicle>
    <vehicle id="30" depart="0.01" accel="2.86" decel="4.83" sigma="0.5" length="3.66" minGap="4.26" maxSpeed="41.5">
        <route edges="275413831 275413837 275413841 288193247"/>
    </vehicle>
    <vehicle id="31" depart="0.01" accel="2.94" decel="4.48" sigma="0.5" length="4.23" minGap="2.03" maxSpeed="45.5">
        <route edges="288193246"/>
    </vehicle>
    <vehicle id="32" depart="0.01" accel="2.3" decel="4.8" sigma="0.5" length="4.13" minGap="3.69" maxSpeed="32.0">
        <route edges="288193246 275413828"/>
    </vehicle>
    <vehicle id="33" depart="0.01" accel="2.57" decel="4.78" sigma="0.5" length="4.75" minGap="2.35" maxSpeed="37.1">
        <route edges="275413837 275413841 288193247"/>
    </vehicle>
    <vehicle id="34" depart="0.01" accel="2.53" decel="4.49" sigma="0.5" length="4.38" minGap="3.58" maxSpeed="48.2">
        <route edges="275413841 288193247"/>
    </vehicle>
    <vehicle id="36" depart="0.01" accel="2.14" decel="4.95" sigma="0.5" length="4.32" minGap="4.04" maxSpeed="43.4">
        <route edges="275413831 275413837 275413841"/>
    </vehicle>
    <vehicle id="38" depart="0.01" accel="2.18" decel="4.44" sigma="0.5" length="4.32" minGap="2.09" maxSpeed="27.1">
        <route edges="275413837 275413841"/>
    </vehicle>
    <vehicle id="39" depart="0.01" accel="2.33" decel="4.07" sigma="0.5" length="4.04" minGap="4.05" maxSpeed="45.5">
        <route edges="275413831 275413837 275413841"/>
    </vehicle>
    <vehicle id="40" depart="0.01" accel="2.46" decel="4.81" sigma="0.5" length="3.36" minGap="2.68" maxSpeed="36.6">
        <route edges="275413831 275413837 275413841"/>
    </vehicle>
    <vehicle id="41" depart="0.01" accel="2.2" decel="4.7" sigma="0.5" length="4.77" minGap="2.74" maxSpeed="47.69">
        <route edges="275413841 288193247"/>
    </vehicle>
    <vehicle id="43" depart="0.01" accel="2.9" decel="4.16" sigma="0.5" length="3.45" minGap="3.9" maxSpeed="34.8">
        <route edges="288193246 275413828 143837872"/>
    </vehicle>
    <vehicle id="44" depart="0.01" accel="2.04" decel="4.42" sigma="0.5" length="4.95" minGap="2.49" maxSpeed="27.59">
        <route edges="275413841"/>
    </vehicle>
    <vehicle id="45" depart="0.01" accel="2.15" decel="4.84" sigma="0.5" length="4.93" minGap="2.21" maxSpeed="42.69">
        <route edges="288193246"/>
    </vehicle>
    <vehicle id="46" depart="0.01" accel="2.03" decel="4.81" sigma="0.5" length="4.85" minGap="4.6" maxSpeed="37.7">
        <route edges="288193246"/>
    </vehicle>
    <vehicle id="47" depart="0.01" accel="2.59" decel="4.65" sigma="0.5" length="3.23" minGap="2.41" maxSpeed="33.19">
        <route edges="275413837 275413841"/>
    </vehicle>
    <vehicle id="49" depart="0.01" accel="2.31" decel="4.48" sigma="0.5" length="4.85" minGap="4.11" maxSpeed="42.5">
        <route edges="275413841"/>
    </vehicle>
    <vehicle id="50" depart="0.01" accel="2.71" decel="4.26" sigma="0.5" length="4.42" minGap="4.5" maxSpeed="32.1">
        <route edges="44288195 288193246"/>
    </vehicle>
    <vehicle id="51" depart="0.01" accel="2.86" decel="4.24" sigma="0.5" length="3.69" minGap="3.25" maxSpeed="42.5">
        <route edges="275413831 275413837 275413841 288193247"/>
    </vehicle>
    <vehicle id="52" depart="0.01" accel="2.68" decel="4.79" sigma="0.5" length="4.31" minGap="4.02" maxSpeed="26.6">
        <route edges="288193246 275413828 143837872"/>
    </vehicle>
    <vehicle id="53" depart="0.01" accel="2.2" decel="4.26" sigma="0.5" length="4.14" minGap="3.29" maxSpeed="23.3">
        <route edges="44288195 288193246"/>
    </vehicle>
    <vehicle id="56" depart="0.01" accel="2.87" decel="4.03" sigma="0.5" length="4.59" minGap="3.45" maxSpeed="27.20">
        <route edges="44288195 288193246"/>
    </vehicle>
    <vehicle id="57" depart="0.01" accel="2.89" decel="4.28" sigma="0.5" length="4.76" minGap="2.5" maxSpeed="46.2">
        <route edges="288193246"/>
    </vehicle>
    <vehicle id="58" depart="0.01" accel="2.02" decel="4.98" sigma="0.5" length="3.37" minGap="3.63" maxSpeed="33.9">
        <route edges="275413837 275413841"/>
    </vehicle>
    <vehicle id="59" depart="0.01" accel="2.6" decel="4.85" sigma="0.5" length="4.13" minGap="4.85" maxSpeed="39.90">
        <route edges="275413837 275413841 288193247"/>
    </vehicle>
    <vehicle id="60" depart="0.01" accel="2.96" decel="4.45" sigma="0.5" length="4.15" minGap="3.7" maxSpeed="38.1">
        <route edges="44288195 288193246 275413828"/>
    </vehicle>
    <vehicle id="61" depart="0.01" accel="2.36" decel="4.19" sigma="0.5" length="4.56" minGap="2.74" maxSpeed="32.3">
        <route edges="288193246"/>
    </vehicle>
    <vehicle id="62" depart="0.01" accel="2.21" decel="4.96" sigma="0.5" length="4.5" minGap="3.97" maxSpeed="34.0">
        <route edges="288193246"/>
    </vehicle>
    <vehicle id="63" depart="0.01" accel="2.78" decel="4.01" sigma="0.5" length="3.08" minGap="2.84" maxSpeed="37.0">
        <route edges="275413841 288193247"/>
    </vehicle>
    <vehicle id="65" depart="0.01" accel="2.96" decel="4.2" sigma="0.5" length="3.78" minGap="2.15" maxSpeed="31.9">
        <route edges="275413831 275413837 275413841"/>
    </vehicle>
    <vehicle id="66" depart="0.01" accel="2.05" decel="4.58" sigma="0.5" length="4.13" minGap="3.13" maxSpeed="37.5">
        <route edges="275413837 275413841 288193247"/>
    </vehicle>
    <vehicle id="67" depart="0.01" accel="2.11" decel="4.43" sigma="0.5" length="4.31" minGap="2.53" maxSpeed="40.59">
        <route edges="44288195 288193246 275413828 143837872"/>
    </vehicle>
    <vehicle id="68" depart="0.01" accel="2.58" decel="4.22" sigma="0.5" length="3.76" minGap="2.16" maxSpeed="40.0">
        <route edges="44288195 288193246 275413828"/>
    </vehicle>
    <vehicle id="69" depart="0.01" accel="2.77" decel="4.79" sigma="0.5" length="4.44" minGap="2.99" maxSpeed="33.19">
        <route edges="288193246 275413828 143837872"/>
    </vehicle>
    <vehicle id="70" depart="0.01" accel="2.33" decel="4.21" sigma="0.5" length="3.16" minGap="3.75" maxSpeed="21.40">
        <route edges="44288195 288193246 275413828"/>
    </vehicle>
    <vehicle id="71" depart="0.01" accel="2.21" decel="4.54" sigma="0.5" length="3.74" minGap="4.21" maxSpeed="48.9">
        <route edges="44288195 288193246"/>
    </vehicle>
    <vehicle id="72" depart="0.01" accel="2.4" decel="4.66" sigma="0.5" length="3.8" minGap="4.15" maxSpeed="37.8">
        <route edges="44288195 288193246 275413828 143837872"/>
    </vehicle>
    <vehicle id="73" depart="0.01" accel="2.35" decel="4.8" sigma="0.5" length="3.77" minGap="3.98" maxSpeed="33.0">
        <route edges="275413841 288193247"/>
    </vehicle>
    <vehicle id="74" depart="0.01" accel="2.54" decel="4.88" sigma="0.5" length="4.62" minGap="2.72" maxSpeed="32.0">
        <route edges="44288195 288193246 275413828 143837872"/>
    </vehicle>
    <vehicle id="76" depart="0.01" accel="2.97" decel="4.92" sigma="0.5" length="4.67" minGap="3.82" maxSpeed="35.0">
        <route edges="275413831 275413837 275413841"/>
    </vehicle>
    <vehicle id="77" depart="0.01" accel="2.18" decel="4.74" sigma="0.5" length="4.37" minGap="4.48" maxSpeed="32.40">
        <route edges="275413837 275413841"/>
    </vehicle>
    <vehicle id="78" depart="0.01" accel="2.91" decel="4.54" sigma="0.5" length="4.94" minGap="2.38" maxSpeed="24.2">
        <route edges="288193246 275413828 143837872"/>
    </vehicle>
    <vehicle id="79" depart="0.01" accel="2.81" decel="4.55" sigma="0.5" length="4.37" minGap="3.39" maxSpeed="27.3">
        <route edges="275413831 275413837 275413841"/>
    </vehicle>
    <vehicle id="80" depart="0.01" accel="2.12" decel="4.43" sigma="0.5" length="3.46" minGap="3.36" maxSpeed="41.7">
        <route edges="288193246 275413828 143837872"/>
    </vehicle>
    <vehicle id="81" depart="0.01" accel="2.55" decel="4.42" sigma="0.5" length="3.57" minGap="2.25" maxSpeed="42.40">
        <route edges="275413837 275413841"/>
    </vehicle>
    <vehicle id="83" depart="0.01" accel="2.79" decel="4.74" sigma="0.5" length="4.53" minGap="4.1" maxSpeed="30.9">
        <route edges="275413831 275413837 275413841"/>
    </vehicle>
    <vehicle id="85" depart="0.01" accel="2.5" decel="4.98" sigma="0.5" length="3.81" minGap="4.06" maxSpeed="43.5">
        <route edges="275413837 275413841 288193247"/>
    </vehicle>
    <vehicle id="86" depart="0.01" accel="2.58" decel="4.34" sigma="0.5" length="4.23" minGap="4.24" maxSpeed="22.59">
        <route edges="288193246 275413828"/>
    </vehicle>
    <vehicle id="87" depart="0.01" accel="2.88" decel="4.69" sigma="0.5" length="4.79" minGap="3.55" maxSpeed="29.8">
        <route edges="44288195 288193246 275413828 143837872"/>
    </vehicle>
    <vehicle id="88" depart="0.01" accel="2.31" decel="4.59" sigma="0.5" length="4.78" minGap="4.57" maxSpeed="22.40">
        <route edges="275413831 275413837 275413841"/>
    </vehicle>
    <vehicle id="89" depart="0.01" accel="2.86" decel="4.6" sigma="0.5" length="4.81" minGap="4.07" maxSpeed="32.59">
        <route edges="275413841"/>
    </vehicle>
    <vehicle id="90" depart="0.01" accel="2.14" decel="4.91" sigma="0.5" length="4.5" minGap="2.68" maxSpeed="49.6">
        <route edges="288193246 275413828"/>
    </vehicle>
    <vehicle id="92" depart="0.01" accel="2.6" decel="4.62" sigma="0.5" length="4.16" minGap="2.95" maxSpeed="27.20">
        <route edges="275413837 275413841"/>
    </vehicle>
    <vehicle id="93" depart="0.01" accel="2.52" decel="4.37" sigma="0.5" length="3.11" minGap="4.97" maxSpeed="26.7">
        <route edges="275413841"/>
    </vehicle>
    <vehicle id="94" depart="0.01" accel="2.27" decel="4.75" sigma="0.5" length="3.49" minGap="4.78" maxSpeed="49.80">
        <route edges="288193246"/>
    </vehicle>
    <vehicle id="95" depart="0.01" accel="2.68" decel="4.72" sigma="0.5" length="3.64" minGap="3.2" maxSpeed="20.9">
        <route edges="288193246"/>
    </vehicle>
    <vehicle id="96" depart="0.01" accel="2.07" decel="4.48" sigma="0.5" length="4.76" minGap="4.97" maxSpeed="42.40">
        <route edges="275413831 275413837 275413841"/>
    </vehicle>
    <vehicle id="97" depart="0.01" accel="2.15" decel="4.87" sigma="0.5" length="3.13" minGap="2.75" maxSpeed="23.3">
        <route edges="44288195 288193246"/>
    </vehicle>
    <vehicle id="98" depart="0.01" accel="2.42" decel="4.04" sigma="0.5" length="4.38" minGap="3.73" maxSpeed="38.9">
        <route edges="275413837 275413841"/>
    </vehicle>
    <vehicle id="99" depart="0.01" accel="2.16" decel="4.72" sigma="0.5" length="4.03" minGap="4.17" maxSpeed="30.09">
        <route edges="275413837 275413841"/>
    </vehicle>
    <vehicle id="100" depart="0.01" accel="2.26" decel="4.11" sigma="0.5" length="3.72" minGap="4.07" maxSpeed="38.3">
        <route edges="275413841 288193247"/>
    </vehicle>
    <vehicle id="101" depart="0.01" accel="2.43" decel="4.38" sigma="0.5" length="4.27" minGap="3.34" maxSpeed="30.2">
        <route edges="288193246 275413828 143837872"/>
    </vehicle>
    <vehicle id="103" depart="0.01" accel="2.43" decel="4.84" sigma="0.5" length="3.31" minGap="4.57" maxSpeed="22.5">
        <route edges="275413837 275413841 288193247"/>
    </vehicle>
    <vehicle id="104" depart="0.01" accel="2.22" decel="4.77" sigma="0.5" length="4.98" minGap="4.24" maxSpeed="31.5">
        <route edges="288193246 275413828"/>
    </vehicle>
    <vehicle id="105" depart="0.01" accel="2.57" decel="4.04" sigma="0.5" length="4.65" minGap="2.86" maxSpeed="27.40">
        <route edges="44288195 288193246"/>
    </vehicle>
    <vehicle id="106" depart="0.01" accel="2.39" decel="4.48" sigma="0.5" length="3.5" minGap="3.06" maxSpeed="22.5">
        <route edges="288193246 275413828 143837872"/>
    </vehicle>
    <vehicle id="107" depart="0.01" accel="2.8" decel="4.67" sigma="0.5" length="3.2" minGap="3.47" maxSpeed="33.3">
        <route edges="288193246 275413828"/>
    </vehicle>
    <vehicle id="108" depart="0.01" accel="2.29" decel="4.33" sigma="0.5" length="4.97" minGap="3.47" maxSpeed="33.6">
        <route edges="275413841"/>
    </vehicle>
    <vehicle id="110" depart="0.01" accel="2.69" decel="4.76" sigma="0.5" length="3.93" minGap="4.1" maxSpeed="43.8">
        <route edges="275413831 275413837 275413841"/>
    </vehicle>
    <vehicle id="111" depart="0.01" accel="2.6" decel="4.33" sigma="0.5" length="3.92" minGap="3.65" maxSpeed="47.9">
        <route edges="288193246 275413828"/>
    </vehicle>
    <vehicle id="112" depart="0.01" accel="2.95" decel="4.66" sigma="0.5" length="4.1" minGap="3.44" maxSpeed="33.6">
        <route edges="275413837 275413841 288193247"/>
    </vehicle>
    <vehicle id="113" depart="0.01" accel="2.35" decel="4.09" sigma="0.5" length="4.84" minGap="2.17" maxSpeed="43.6">
        <route edges="275413841 288193247"/>
    </vehicle>
    <vehicle id="115" depart="0.01" accel="2.43" decel="4.06" sigma="0.5" length="4.14" minGap="4.48" maxSpeed="26.7">
        <route edges="44288195 288193246 275413828 143837872"/>
    </vehicle>
    <vehicle id="116" depart="0.01" accel="2.07" decel="4.78" sigma="0.5" length="4.24" minGap="4.22" maxSpeed="41.2">
        <route edges="44288195 288193246 275413828 143837872"/>
    </vehicle>
    <vehicle id="117" depart="0.01" accel="2.84" decel="4.32" sigma="0.5" length="3.56" minGap="2.8" maxSpeed="45.0">
        <route edges="275413831 275413837 275413841 288193247"/>
    </vehicle>
    <vehicle id="118" depart="0.01" accel="2.63" decel="4.4" sigma="0.5" length="3.97" minGap="2.96" maxSpeed="20.9">
        <route edges="275413831 275413837 275413841 288193247"/>
    </vehicle>
    <vehicle id="119" depart="0.01" accel="2.47" decel="4.4" sigma="0.5" length="4.03" minGap="2.23" maxSpeed="23.4">
        <route edges="44288195 288193246 275413828"/>
    </vehicle>
    <vehicle id="120" depart="0.01" accel="2.21" decel="4.08" sigma="0.5" length="4.85" minGap="3.33" maxSpeed="35.4">
        <route edges="288193246"/>
    </vehicle>
    <vehicle id="121" depart="0.01" accel="2.83" decel="4.1" sigma="0.5" length="4.31" minGap="2.41" maxSpeed="27.0">
        <route edges="275413841 288193247"/>
    </vehicle>
    <vehicle id="122" depart="0.01" accel="2.9" decel="4.77" sigma="0.5" length="3.2" minGap="4.65" maxSpeed="39.5">
        <route edges="275413837 275413841 288193247"/>
    </vehicle>
    <vehicle id="126" depart="0.01" accel="2.21" decel="4.69" sigma="0.5" length="4.5" minGap="2.69" maxSpeed="20.5">
        <route edges="44288195 288193246 275413828"/>
    </vehicle>
    <vehicle id="128" depart="0.01" accel="2.87" decel="4.19" sigma="0.5" length="3.47" minGap="4.86" maxSpeed="32.1">
        <route edges="44288195 288193246 275413828"/>
    </vehicle>
    <vehicle id="131" depart="0.01" accel="2.93" decel="4.68" sigma="0.5" length="4.51" minGap="4.91" maxSpeed="33.3">
        <route edges="288193246 275413828 143837872"/>
    </vehicle>
    <vehicle id="133" depart="0.01" accel="2.01" decel="4.92" sigma="0.5" length="4.12" minGap="4.73" maxSpeed="23.90">
        <route edges="275413831 275413837 275413841"/>
    </vehicle>
    <vehicle id="135" depart="0.01" accel="2.44" decel="4.07" sigma="0.5" length="4.97" minGap="3.64" maxSpeed="34.30">
        <route edges="275413837 275413841"/>
    </vehicle>
    <vehicle id="136" depart="0.01" accel="2.68" decel="4.96" sigma="0.5" length="4.34" minGap="2.43" maxSpeed="25.5">
        <route edges="275413841"/>
    </vehicle>
    <vehicle id="137" depart="0.01" accel="2.12" decel="4.26" sigma="0.5" length="3.99" minGap="3.51" maxSpeed="32.0">
        <route edges="275413837 275413841"/>
    </vehicle>
    <vehicle id="138" depart="0.01" accel="2.98" decel="4.29" sigma="0.5" length="4.84" minGap="3.36" maxSpeed="37.9">
        <route edges="275413831 275413837 275413841 288193247"/>
    </vehicle>
    <vehicle id="140" depart="0.01" accel="2.82" decel="4.29" sigma="0.5" length="4.13" minGap="4.16" maxSpeed="34.5">
        <route edges="44288195 288193246 275413828 143837872"/>
    </vehicle>
    <vehicle id="141" depart="0.01" accel="2.07" decel="4.41" sigma="0.5" length="3.95" minGap="2.46" maxSpeed="49.80">
        <route edges="44288195 288193246 275413828"/>
    </vehicle>
    <vehicle id="144" depart="0.01" accel="2.76" decel="4.3" sigma="0.5" length="3.82" minGap="3.3" maxSpeed="43.9">
        <route edges="275413831 275413837 275413841"/>
    </vehicle>
    <vehicle id="145" depart="0.01" accel="2.79" decel="4.93" sigma="0.5" length="3.2" minGap="3.64" maxSpeed="42.5">
        <route edges="288193246 275413828"/>
    </vehicle>
    <vehicle id="146" depart="0.01" accel="2.69" decel="4.27" sigma="0.5" length="4.09" minGap="3.73" maxSpeed="48.9">
        <route edges="275413841 288193247"/>
    </vehicle>
    <vehicle id="147" depart="0.01" accel="2.74" decel="4.84" sigma="0.5" length="4.07" minGap="2.39" maxSpeed="44.5">
        <route edges="44288195 288193246 275413828"/>
    </vehicle>
    <vehicle id="150" depart="0.01" accel="2.27" decel="4.07" sigma="0.5" length="3.5" minGap="3.98" maxSpeed="24.0">
        <route edges="275413837 275413841"/>
    </vehicle>
    <vehicle id="151" depart="0.01" accel="2.21" decel="4.99" sigma="0.5" length="3.52" minGap="2.7" maxSpeed="28.5">
        <route edges="44288195 288193246"/>
    </vehicle>
    <vehicle id="152" depart="0.01" accel="2.66" decel="4.73" sigma="0.5" length="3.28" minGap="2.33" maxSpeed="21.7">
        <route edges="275413831 275413837 275413841"/>
    </vehicle>
    <vehicle id="154" depart="0.01" accel="2.52" decel="4.71" sigma="0.5" length="4.34" minGap="2.66" maxSpeed="32.5">
        <route edges="44288195 288193246 275413828"/>
    </vehicle>
    <vehicle id="155" depart="0.01" accel="2.54" decel="4.42" sigma="0.5" length="3.31" minGap="4.72" maxSpeed="47.19">
        <route edges="288193246"/>
    </vehicle>
    <vehicle id="156" depart="0.01" accel="2.39" decel="4.99" sigma="0.5" length="3.9" minGap="3.31" maxSpeed="27.20">
        <route edges="275413841"/>
    </vehicle>
    <vehicle id="157" depart="0.01" accel="2.51" decel="4.16" sigma="0.5" length="4.07" minGap="3.69" maxSpeed="48.9">
        <route edges="44288195 288193246 275413828 143837872"/>
    </vehicle>
    <vehicle id="158" depart="0.01" accel="2.85" decel="4.46" sigma="0.5" length="4.64" minGap="4.91" maxSpeed="44.40">
        <route edges="275413837 275413841"/>
    </vehicle>
    <vehicle id="160" depart="0.01" accel="2.12" decel="4.85" sigma="0.5" length="3.75" minGap="3.39" maxSpeed="42.1">
        <route edges="288193246 275413828 143837872"/>
    </vehicle>
    <vehicle id="161" depart="0.01" accel="2.32" decel="4.63" sigma="0.5" length="4.81" minGap="3.96" maxSpeed="39.2">
        <route edges="288193246"/>
    </vehicle>
    <vehicle id="163" depart="0.01" accel="2.13" decel="4.48" sigma="0.5" length="4.81" minGap="3.55" maxSpeed="45.59">
        <route edges="275413831 275413837 275413841 288193247"/>
    </vehicle>
    <vehicle id="165" depart="0.01" accel="2.21" decel="4.65" sigma="0.5" length="3.26" minGap="3.56" maxSpeed="22.59">
        <route edges="44288195 288193246 275413828 143837872"/>
    </vehicle>
    <vehicle id="166" depart="0.01" accel="2.4" decel="4.78" sigma="0.5" length="4.37" minGap="3.8" maxSpeed="23.70">
        <route edges="275413837 275413841"/>
    </vehicle>
    <vehicle id="168" depart="0.01" accel="2.96" decel="4.26" sigma="0.5" length="4.35" minGap="2.69" maxSpeed="44.90">
        <route edges="44288195 288193246"/>
    </vehicle>
    <vehicle id="169" depart="0.01" accel="2.11" decel="4.16" sigma="0.5" length="4.19" minGap="2.36" maxSpeed="38.6">
        <route edges="275413841 288193247"/>
    </vehicle>
    <vehicle id="170" depart="0.01" accel="2.73" decel="4.11" sigma="0.5" length="3.22" minGap="4.01" maxSpeed="25.2">
        <route edges="288193246 275413828 143837872"/>
    </vehicle>
    <vehicle id="171" depart="0.01" accel="2.44" decel="4.37" sigma="0.5" length="3.38" minGap="2.48" maxSpeed="25.8">
        <route edges="275413831 275413837 275413841"/>
    </vehicle>
    <vehicle id="172" depart="0.01" accel="2.55" decel="4.46" sigma="0.5" length="3.2" minGap="2.91" maxSpeed="34.90">
        <route edges="275413831 275413837 275413841 288193247"/>
    </vehicle>
    <vehicle id="173" depart="0.01" accel="2.65" decel="4.44" sigma="0.5" length="4.21" minGap="4.95" maxSpeed="35.5">
        <route edges="288193246"/>
    </vehicle>
    <vehicle id="174" depart="0.01" accel="2.47" decel="4.38" sigma="0.5" length="3.72" minGap="4.14" maxSpeed="26.7">
        <route edges="275413841 288193247"/>
    </vehicle>
    <vehicle id="175" depart="0.01" accel="2.89" decel="4.09" sigma="0.5" length="3.41" minGap="3.0" maxSpeed="44.2">
        <route edges="275413837 275413841 288193247"/>
    </vehicle>
    <vehicle id="176" depart="0.01" accel="2.61" decel="4.17" sigma="0.5" length="4.63" minGap="3.07" maxSpeed="24.0">
        <route edges="288193246"/>
    </vehicle>
    <vehicle id="177" depart="0.01" accel="2.83" decel="4.69" sigma="0.5" length="4.16" minGap="3.06" maxSpeed="49.1">
        <route edges="44288195 288193246 275413828 143837872"/>
    </vehicle>
    <vehicle id="178" depart="0.01" accel="2.06" decel="4.71" sigma="0.5" length="3.24" minGap="4.46" maxSpeed="26.29">
        <route edges="288193246 275413828 143837872"/>
    </vehicle>
    <vehicle id="179" depart="0.01" accel="2.46" decel="4.24" sigma="0.5" length="3.71" minGap="4.48" maxSpeed="41.3">
        <route edges="288193246 275413828 143837872"/>
    </vehicle>
    <vehicle id="180" depart="0.01" accel="2.59" decel="4.18" sigma="0.5" length="3.05" minGap="2.5" maxSpeed="31.20">
        <route edges="44288195 288193246 275413828"/>
    </vehicle>
    <vehicle id="181" depart="0.01" accel="2.14" decel="4.71" sigma="0.5" length="4.56" minGap="3.85" maxSpeed="49.1">
        <route edges="275413831 275413837 275413841"/>
    </vehicle>
    <vehicle id="184" depart="0.01" accel="2.08" decel="4.17" sigma="0.5" length="3.54" minGap="3.36" maxSpeed="30.7">
        <route edges="275413837 275413841 288193247"/>
    </vehicle>
    <vehicle id="185" depart="0.01" accel="2.21" decel="4.84" sigma="0.5" length="4.93" minGap="4.4" maxSpeed="45.19">
        <route edges="275413831 275413837 275413841 288193247"/>
    </vehicle>
    <vehicle id="186" depart="0.01" accel="2.24" decel="4.89" sigma="0.5" length="4.36" minGap="2.65" maxSpeed="25.29">
        <route edges="275413831 275413837 275413841"/>
    </vehicle>
    <vehicle id="187" depart="0.01" accel="2.22" decel="4.09" sigma="0.5" length="4.47" minGap="2.12" maxSpeed="42.0">
        <route edges="275413841 288193247"/>
    </vehicle>
    <vehicle id="188" depart="0.01" accel="2.93" decel="4.22" sigma="0.5" length="4.27" minGap="3.59" maxSpeed="20.6">
        <route edges="44288195 288193246"/>
    </vehicle>
    <vehicle id="192" depart="0.01" accel="2.64" decel="4.57" sigma="0.5" length="4.16" minGap="3.27" maxSpeed="31.20">
        <route edges="275413837 275413841"/>
    </vehicle>
    <vehicle id="194" depart="0.01" accel="2.51" decel="4.7" sigma="0.5" length="4.98" minGap="3.02" maxSpeed="33.3">
        <route edges="275413831 275413837 275413841 288193247"/>
    </vehicle>
    <vehicle id="195" depart="0.01" accel="2.22" decel="4.1" sigma="0.5" length="4.13" minGap="4.55" maxSpeed="31.20">
        <route edges="44288195 288193246 275413828 143837872"/>
    </vehicle>
    <vehicle id="196" depart="0.01" accel="2.9" decel="4.29" sigma="0.5" length="4.44" minGap="2.2" maxSpeed="45.5">
        <route edges="275413831 275413837 275413841 288193247"/>
    </vehicle>
    <vehicle id="197" depart="0.01" accel="2.6" decel="4.96" sigma="0.5" length="4.89" minGap="2.89" maxSpeed="21.0">
        <route edges="44288195 288193246 275413828 143837872"/>
    </vehicle>
    <vehicle id="198" depart="0.01" accel="2.7" decel="4.41" sigma="0.5" length="3.07" minGap="4.2" maxSpeed="49.40">
        <route edges="275413841 288193247"/>
    </vehicle>
    <vehicle id="200" depart="0.01" accel="2.64" decel="4.74" sigma="0.5" length="3.35" minGap="2.04" maxSpeed="39.30">
        <route edges="275413831 275413837 275413841"/>
    </vehicle>
    <vehicle id="201" depart="0.01" accel="2.79" decel="4.76" sigma="0.5" length="3.8" minGap="3.94" maxSpeed="37.8">
        <route edges="44288195 288193246"/>
    </vehicle>
    <vehicle id="202" depart="0.01" accel="2.19" decel="4.66" sigma="0.5" length="4.13" minGap="2.09" maxSpeed="39.0">
        <route edges="275413837 275413841"/>
    </vehicle>
    <vehicle id="203" depart="0.01" accel="2.46" decel="4.96" sigma="0.5" length="3.42" minGap="4.18" maxSpeed="44.40">
        <route edges="44288195 288193246 275413828 143837872"/>
    </vehicle>
    <vehicle id="204" depart="0.01" accel="2.58" decel="4.26" sigma="0.5" length="4.97" minGap="3.88" maxSpeed="34.8">
        <route edges="275413837 275413841"/>
    </vehicle>